@<TRIPOS>MOLECULE
Clc1ccc(OC(C)C)cc1
 22 22 0 0 0
SMALL
GASTEIGER

@<TRIPOS>ATOM
      1 CL          5.0519   -0.5141    0.1959 Cl      1  UNL1       -0.0835
      2 C           3.3349   -0.4468    0.2708 C.ar    1  UNL1        0.0412
      3 C           2.6630   -1.0427    1.3333 C.ar    1  UNL1       -0.0399
      4 C           1.2685   -0.9827    1.3865 C.ar    1  UNL1       -0.0185
      5 C           0.5402   -0.3348    0.3829 C.ar    1  UNL1        0.1210
      6 O          -0.8125   -0.3529    0.5696 O.3     1  UNL1       -0.4894
      7 C          -1.6704    0.1451   -0.4621 C.3     1  UNL1        0.0946
      8 C          -2.9901   -0.6138   -0.3386 C.3     1  UNL1       -0.0281
      9 C          -1.9086    1.6391   -0.2636 C.3     1  UNL1       -0.0281
     10 C           1.2244    0.2645   -0.6751 C.ar    1  UNL1       -0.0185
     11 C           2.6221    0.2070   -0.7319 C.ar    1  UNL1       -0.0399
     12 H           3.2116   -1.5521    2.1204 H       1  UNL1        0.0633
     13 H           0.7422   -1.4472    2.2174 H       1  UNL1        0.0654
     14 H          -1.2699   -0.0630   -1.4607 H       1  UNL1        0.0727
     15 H          -3.7102   -0.2861   -1.0947 H       1  UNL1        0.0265
     16 H          -2.8225   -1.6896   -0.4604 H       1  UNL1        0.0265
     17 H          -3.4338   -0.4754    0.6538 H       1  UNL1        0.0265
     18 H          -0.9740    2.2034   -0.3378 H       1  UNL1        0.0265
     19 H          -2.3150    1.8408    0.7338 H       1  UNL1        0.0265
     20 H          -2.6057    2.0307   -1.0110 H       1  UNL1        0.0265
     21 H           0.7078    0.7933   -1.4684 H       1  UNL1        0.0654
     22 H           3.1461    0.6773   -1.5599 H       1  UNL1        0.0633
@<TRIPOS>BOND
     1    22    11    1
     2    21    10    1
     3    14     7    1
     4    15     8    1
     5    20     9    1
     6    11    10   ar
     7    11     2   ar
     8    10     5   ar
     9     7     8    1
    10     7     9    1
    11     7     6    1
    12    16     8    1
    13     8    17    1
    14    18     9    1
    15     9    19    1
    16     1     2    1
    17     2     3   ar
    18     5     6    1
    19     5     4   ar
    20     3     4   ar
    21     3    12    1
    22     4    13    1
