@<TRIPOS>MOLECULE
Clc1cc(OC(c2ccccc2))ccc1
 26 27 0 0 0
SMALL
GASTEIGER

@<TRIPOS>ATOM
      1 CL          4.8061    0.6258    2.7213 Cl      1  UNL1       -0.0834
      2 C           3.9046    0.3240    1.2868 C.ar    1  UNL1        0.0444
      3 C           2.5120    0.3091    1.3330 C.ar    1  UNL1       -0.0016
      4 C           1.7722    0.0648    0.1728 C.ar    1  UNL1        0.1224
      5 O           0.4166    0.0769    0.3512 O.3     1  UNL1       -0.4873
      6 C          -0.3950   -0.1656   -0.7950 C.3     1  UNL1        0.1146
      7 C          -1.8405   -0.1051   -0.3677 C.ar    1  UNL1       -0.0104
      8 C          -2.4972   -1.2576    0.0866 C.ar    1  UNL1       -0.0554
      9 C          -3.8308   -1.1979    0.4945 C.ar    1  UNL1       -0.0614
     10 C          -4.5175    0.0144    0.4611 C.ar    1  UNL1       -0.0617
     11 C          -3.8702    1.1694    0.0260 C.ar    1  UNL1       -0.0614
     12 C          -2.5366    1.1119   -0.3824 C.ar    1  UNL1       -0.0554
     13 C           2.4414   -0.1640   -1.0317 C.ar    1  UNL1       -0.0198
     14 C           3.8394   -0.1481   -1.0737 C.ar    1  UNL1       -0.0569
     15 C           4.5729    0.0961    0.0867 C.ar    1  UNL1       -0.0432
     16 H           1.9930    0.4873    2.2713 H       1  UNL1        0.0669
     17 H          -0.2130    0.5938   -1.5661 H       1  UNL1        0.0748
     18 H          -0.1830   -1.1561   -1.2171 H       1  UNL1        0.0748
     19 H          -1.9696   -2.2078    0.1315 H       1  UNL1        0.0621
     20 H          -4.3320   -2.0964    0.8449 H       1  UNL1        0.0618
     21 H          -5.5545    0.0608    0.7827 H       1  UNL1        0.0618
     22 H          -4.4020    2.1171    0.0110 H       1  UNL1        0.0618
     23 H          -2.0400    2.0239   -0.7060 H       1  UNL1        0.0621
     24 H           1.9087   -0.3578   -1.9571 H       1  UNL1        0.0654
     25 H           4.3564   -0.3267   -2.0136 H       1  UNL1        0.0619
     26 H           5.6588    0.1074    0.0491 H       1  UNL1        0.0632
@<TRIPOS>BOND
     1    25    14    1
     2    24    13    1
     3    17     6    1
     4    18     6    1
     5    14    13   ar
     6    14    15   ar
     7    13     4   ar
     8     6     7    1
     9     6     5    1
    10    23    12    1
    11    12     7   ar
    12    12    11   ar
    13     7     8   ar
    14    22    11    1
    15    11    10   ar
    16    26    15    1
    17     8    19    1
    18     8     9   ar
    19    15     2   ar
    20     4     5    1
    21     4     3   ar
    22    10     9   ar
    23    10    21    1
    24     9    20    1
    25     2     3   ar
    26     2     1    1
    27     3    16    1
