@<TRIPOS>MOLECULE
Clc1ccc(OC(c2ccccc2))cc1
 26 27 0 0 0
SMALL
GASTEIGER

@<TRIPOS>ATOM
      1 CL         -6.2715   -0.2087    0.1666 Cl      1  UNL1       -0.0835
      2 C          -4.5571   -0.1109    0.0672 C.ar    1  UNL1        0.0412
      3 C          -3.7696   -0.7627    1.0142 C.ar    1  UNL1       -0.0399
      4 C          -2.3741   -0.6862    0.9377 C.ar    1  UNL1       -0.0185
      5 C          -1.7684    0.0431   -0.0874 C.ar    1  UNL1        0.1211
      6 O          -0.4246    0.2003   -0.2801 O.3     1  UNL1       -0.4874
      7 C           0.4468   -0.4379    0.6496 C.3     1  UNL1        0.1146
      8 C           1.8680   -0.1318    0.2470 C.ar    1  UNL1       -0.0104
      9 C           2.5133    1.0153    0.7306 C.ar    1  UNL1       -0.0554
     10 C           3.8238    1.3049    0.3471 C.ar    1  UNL1       -0.0614
     11 C           4.4982    0.4570   -0.5296 C.ar    1  UNL1       -0.0617
     12 C           3.8615   -0.6778   -1.0286 C.ar    1  UNL1       -0.0614
     13 C           2.5509   -0.9693   -0.6464 C.ar    1  UNL1       -0.0554
     14 C          -2.5696    0.6928   -1.0319 C.ar    1  UNL1       -0.0185
     15 C          -3.9623    0.6182   -0.9580 C.ar    1  UNL1       -0.0399
     16 H          -4.2340   -1.3323    1.8150 H       1  UNL1        0.0633
     17 H          -1.7951   -1.2069    1.6931 H       1  UNL1        0.0654
     18 H           0.2698   -0.0640    1.6660 H       1  UNL1        0.0748
     19 H           0.2935   -1.5245    0.6410 H       1  UNL1        0.0748
     20 H           1.9943    1.6933    1.4044 H       1  UNL1        0.0621
     21 H           4.3163    2.1959    0.7276 H       1  UNL1        0.0618
     22 H           5.5173    0.6851   -0.8305 H       1  UNL1        0.0618
     23 H           4.3834   -1.3331   -1.7211 H       1  UNL1        0.0618
     24 H           2.0617   -1.8509   -1.0547 H       1  UNL1        0.0621
     25 H          -2.1025    1.2623   -1.8324 H       1  UNL1        0.0654
     26 H          -4.5699    1.1289   -1.6997 H       1  UNL1        0.0633
@<TRIPOS>BOND
     1    25    14    1
     2    23    12    1
     3    26    15    1
     4    24    13    1
     5    14    15   ar
     6    14     5   ar
     7    12    13   ar
     8    12    11   ar
     9    15     2   ar
    10    22    11    1
    11    13     8   ar
    12    11    10   ar
    13     6     5    1
    14     6     7    1
    15     5     4   ar
    16     2     1    1
    17     2     3   ar
    18     8     7    1
    19     8     9   ar
    20    10    21    1
    21    10     9   ar
    22    19     7    1
    23     7    18    1
    24     9    20    1
    25     4     3   ar
    26     4    17    1
    27     3    16    1
