@<TRIPOS>MOLECULE
Clc1ccc(OC(C)(C)C)cc1
 25 25 0 0 0
SMALL
GASTEIGER

@<TRIPOS>ATOM
      1 CL          5.1276    0.6929    1.1549 Cl      1  UNL1       -0.0835
      2 C           3.5365    0.3361    0.6089 C.ar    1  UNL1        0.0412
      3 C           2.4417    0.9517    1.2093 C.ar    1  UNL1       -0.0399
      4 C           1.1427    0.6646    0.7684 C.ar    1  UNL1       -0.0185
      5 C           0.9341   -0.2363   -0.2712 C.ar    1  UNL1        0.1214
      6 O          -0.2493   -0.6232   -0.8149 O.3     1  UNL1       -0.4865
      7 C          -1.5475   -0.1634   -0.4093 C.3     1  UNL1        0.1023
      8 C          -1.9021   -0.5810    1.0234 C.3     1  UNL1       -0.0255
      9 C          -1.7518    1.3348   -0.6670 C.3     1  UNL1       -0.0255
     10 C          -2.5069   -0.9205   -1.3526 C.3     1  UNL1       -0.0255
     11 C           2.0469   -0.8472   -0.8645 C.ar    1  UNL1       -0.0185
     12 C           3.3448   -0.5660   -0.4305 C.ar    1  UNL1       -0.0399
     13 H           2.5878    1.6579    2.0226 H       1  UNL1        0.0633
     14 H           0.3288    1.1706    1.2694 H       1  UNL1        0.0654
     15 H          -2.9644   -0.4140    1.2338 H       1  UNL1        0.0268
     16 H          -1.6796   -1.6420    1.1846 H       1  UNL1        0.0268
     17 H          -1.3390   -0.0273    1.7772 H       1  UNL1        0.0268
     18 H          -1.1828    1.9639    0.0203 H       1  UNL1        0.0268
     19 H          -1.4250    1.6026   -1.6783 H       1  UNL1        0.0268
     20 H          -2.8051    1.6161   -0.5575 H       1  UNL1        0.0268
     21 H          -2.3874   -2.0049   -1.2425 H       1  UNL1        0.0268
     22 H          -2.2843   -0.6912   -2.4016 H       1  UNL1        0.0268
     23 H          -3.5550   -0.6677   -1.1594 H       1  UNL1        0.0268
     24 H           1.8983   -1.5538   -1.6786 H       1  UNL1        0.0654
     25 H           4.1909   -1.0527   -0.9068 H       1  UNL1        0.0633
@<TRIPOS>BOND
     1    22    10    1
     2    24    11    1
     3    19     9    1
     4    10    21    1
     5    10    23    1
     6    10     7    1
     7    25    12    1
     8    11    12   ar
     9    11     5   ar
    10     6     7    1
    11     6     5    1
    12     9    20    1
    13     9     7    1
    14     9    18    1
    15    12     2   ar
    16     7     8    1
    17     5     4   ar
    18     2     1    1
    19     2     3   ar
    20     4     3   ar
    21     4    14    1
    22     8    16    1
    23     8    15    1
    24     8    17    1
    25     3    13    1
