@<TRIPOS>MOLECULE
Clc1cc(OC(C)(C)C)ccc1
 25 25 0 0 0
SMALL
GASTEIGER

@<TRIPOS>ATOM
      1 CL          4.5553    1.8731    0.7715 Cl      1  UNL1       -0.0834
      2 C           3.2897    0.7893    0.3422 C.ar    1  UNL1        0.0444
      3 C           1.9601    1.1857    0.4768 C.ar    1  UNL1       -0.0016
      4 C           0.9164    0.3182    0.1329 C.ar    1  UNL1        0.1227
      5 O          -0.3180    0.8546    0.3220 O.3     1  UNL1       -0.4865
      6 C          -1.5670    0.1985    0.0561 C.3     1  UNL1        0.1023
      7 C          -1.7689   -0.1083   -1.4332 C.3     1  UNL1       -0.0255
      8 C          -2.6192    1.2584    0.4472 C.3     1  UNL1       -0.0255
      9 C          -1.7989   -1.0204    0.9580 C.3     1  UNL1       -0.0255
     10 C           1.2313   -0.9498   -0.3469 C.ar    1  UNL1       -0.0198
     11 C           2.5672   -1.3484   -0.4822 C.ar    1  UNL1       -0.0569
     12 C           3.5992   -0.4786   -0.1375 C.ar    1  UNL1       -0.0432
     13 H           1.7254    2.1787    0.8526 H       1  UNL1        0.0669
     14 H          -2.8035   -0.4036   -1.6406 H       1  UNL1        0.0268
     15 H          -1.1306   -0.9195   -1.7886 H       1  UNL1        0.0268
     16 H          -1.5296    0.7685   -2.0457 H       1  UNL1        0.0268
     17 H          -2.4875    2.1745   -0.1410 H       1  UNL1        0.0268
     18 H          -3.6415    0.8955    0.2960 H       1  UNL1        0.0268
     19 H          -2.5080    1.5490    1.4987 H       1  UNL1        0.0268
     20 H          -2.8352   -1.3702    0.8934 H       1  UNL1        0.0268
     21 H          -1.1617   -1.8675    0.6969 H       1  UNL1        0.0268
     22 H          -1.5803   -0.7762    2.0039 H       1  UNL1        0.0268
     23 H           0.4723   -1.6667   -0.6298 H       1  UNL1        0.0654
     24 H           2.7995   -2.3420   -0.8583 H       1  UNL1        0.0619
     25 H           4.6335   -0.7929   -0.2444 H       1  UNL1        0.0632
@<TRIPOS>BOND
     1    16     7    1
     2    15     7    1
     3    14     7    1
     4     7     6    1
     5    24    11    1
     6    23    10    1
     7    11    10   ar
     8    11    12   ar
     9    10     4   ar
    10    25    12    1
    11    17     8    1
    12    12     2   ar
    13     6     5    1
    14     6     8    1
    15     6     9    1
    16     4     5    1
    17     4     3   ar
    18    18     8    1
    19     2     3   ar
    20     2     1    1
    21     8    19    1
    22     3    13    1
    23    21     9    1
    24    20     9    1
    25     9    22    1
