@<TRIPOS>MOLECULE
Clc1cc(OC(C)C)ccc1
 22 22 0 0 0
SMALL
GASTEIGER

@<TRIPOS>ATOM
      1 CL          2.6850    0.3258   -3.1359 Cl      1  UNL1       -0.0834
      2 C           2.3014   -0.0509   -1.4994 C.ar    1  UNL1        0.0444
      3 C           0.9927    0.1209   -1.0407 C.ar    1  UNL1       -0.0016
      4 C           0.6782   -0.1828    0.2830 C.ar    1  UNL1        0.1223
      5 O          -0.5494   -0.0730    0.8727 O.3     1  UNL1       -0.4893
      6 C          -1.6213    0.5458    0.1536 C.3     1  UNL1        0.0946
      7 C          -2.3736   -0.5022   -0.6613 C.3     1  UNL1       -0.0281
      8 C          -2.5515    1.1605    1.1974 C.3     1  UNL1       -0.0281
      9 C           1.6821   -0.6653    1.1300 C.ar    1  UNL1       -0.0198
     10 C           2.9889   -0.8356    0.6690 C.ar    1  UNL1       -0.0569
     11 C           3.3007   -0.5256   -0.6521 C.ar    1  UNL1       -0.0432
     12 H           0.2454    0.4812   -1.7377 H       1  UNL1        0.0669
     13 H          -1.2655    1.3631   -0.4839 H       1  UNL1        0.0727
     14 H          -3.2313   -0.0601   -1.1777 H       1  UNL1        0.0265
     15 H          -1.7236   -0.9644   -1.4105 H       1  UNL1        0.0265
     16 H          -2.7323   -1.3136   -0.0181 H       1  UNL1        0.0265
     17 H          -3.4078    1.6534    0.7269 H       1  UNL1        0.0265
     18 H          -2.9220    0.3993    1.8932 H       1  UNL1        0.0265
     19 H          -2.0115    1.8997    1.7992 H       1  UNL1        0.0265
     20 H           1.4410   -0.9095    2.1625 H       1  UNL1        0.0654
     21 H           3.7578   -1.2093    1.3400 H       1  UNL1        0.0619
     22 H           4.3164   -0.6575   -1.0144 H       1  UNL1        0.0632
@<TRIPOS>BOND
     1     1     2    1
     2    12     3    1
     3     2     3   ar
     4     2    11   ar
     5    15     7    1
     6    14     7    1
     7     3     4   ar
     8    22    11    1
     9     7    16    1
    10     7     6    1
    11    11    10   ar
    12    13     6    1
    13     6     5    1
    14     6     8    1
    15     4     5    1
    16     4     9   ar
    17    10     9   ar
    18    10    21    1
    19    17     8    1
    20     9    20    1
    21     8    19    1
    22     8    18    1
