#
#	File Created by: Spartan '14 Export
#

@<TRIPOS>MOLECULE
M0001
92 99
SMALL
NO_CHARGES


@<TRIPOS>ATOM
    1   C1        -0.359415565    -2.159645911     0.192409608    C.ar   1  M0001
    2   C2         0.872584435    -2.271645911     0.971409608       C   1  M0001
    3   C3         0.798584435    -1.743645911     2.335409608    C.ar   1  M0001
    4   C4        -0.239415565    -0.922645911     2.666409608    C.ar   1  M0001
    5   C5        -1.337415565    -0.762645911     1.758409608    C.ar   1  M0001
    6   N6        -1.360415565    -1.419645911     0.567409608    N.ar   1  M0001
    7   H7        -0.257415565    -0.474645911     3.656409608       H   1  M0001
    8   C8        -0.547415565    -2.838645911    -1.122590392    C.ar   1  M0001
    9   C9        -1.771415565    -3.474645911    -1.435590392    C.ar   1  M0001
   10   C10       -1.988415565    -3.939645911    -2.737590392    C.ar   1  M0001
   11   C11        0.206584435    -3.206645911    -3.421590392    C.ar   1  M0001
   12   C12       -1.017415565    -3.792645911    -3.726590392    C.ar   1  M0001
   13   H13       -2.925415565    -4.449645911    -2.966590392       H   1  M0001
   14   H14       -1.205415565    -4.158645911    -4.737590392       H   1  M0001
   15   H15        1.001584435    -3.088645911    -4.157590392       H   1  M0001
   16   C16        0.423584435    -2.757645911    -2.126590392    C.ar   1  M0001
   17   F17        1.610584435    -2.223645911    -1.845590392       F   1  M0001
   18   C18        1.869584435    -2.040645911     3.333409608     C.3   1  M0001
   19   H19        1.739584435    -3.071645911     3.701409608       H   1  M0001
   20   H20        2.865584435    -1.983645911     2.875409608       H   1  M0001
   21   H21        1.815584435    -1.347645911     4.180409608       H   1  M0001
   22   C22       -3.657415565    -0.106645911     1.292409608     C.3   1  M0001
   23   C23       -2.546415565     0.825354089     3.224409608     C.3   1  M0001
   24   C24       -4.738415565    -0.628645911     2.232409608     C.3   1  M0001
   25   H25       -3.528415565    -0.766645911     0.428409608       H   1  M0001
   26   H26       -3.921415565     0.904354089     0.950409608       H   1  M0001
   27   C27       -3.673415565     0.278354089     4.095409608     C.3   1  M0001
   28   H28       -1.610415565     0.903354089     3.783409608       H   1  M0001
   29   H29       -2.819415565     1.832354089     2.871409608       H   1  M0001
   30   H30       -4.489415565    -1.664645911     2.532409608       H   1  M0001
   31   H31       -5.706415565    -0.637645911     1.713409608       H   1  M0001
   32   H32       -3.382415565    -0.717645911     4.482409608       H   1  M0001
   33   H33       -3.846415565     0.948354089     4.947409608       H   1  M0001
   34   N34       -2.402415565    -0.017645911     2.042409608   N.pl3   1  M0001
   35   O35       -4.871415565     0.194354089     3.367409608     O.3   1  M0001
   36   I        1.976584435    -4.073645911     0.736409608       I   1  M0001
   37   H37        1.615584435    -1.364645911     0.437409608       H   1  M0001
   38   C38        4.581584435     5.816354089    -1.848590392    C.ar   1  M0001
   39   C39        3.897584435     4.875354089    -1.116590392    C.ar   1  M0001
   40   C40        4.527584435     3.659354089    -0.728590392    C.ar   1  M0001
   41   C41        5.870584435     3.430354089    -1.144590392    C.ar   1  M0001
   42   C42        6.556584435     4.428354089    -1.891590392    C.ar   1  M0001
   43   C43        5.927584435     5.598354089    -2.232590392    C.ar   1  M0001
   44   H44        4.079584435     6.739354089    -2.142590392       H   1  M0001
   45   H45        2.858584435     5.058354089    -0.843590392       H   1  M0001
   46   C46        3.857584435     2.648354089     0.040409608    C.ar   1  M0001
   47   C47        6.498584435     2.204354089    -0.829590392    C.ar   1  M0001
   48   H48        7.588584435     4.235354089    -2.192590392       H   1  M0001
   49   H49        6.456584435     6.359354089    -2.808590392       H   1  M0001
   50   C50        5.836584435     1.205354089    -0.140590392    C.ar   1  M0001
   51   C51        4.497584435     1.451354089     0.301409608    C.ar   1  M0001
   52   H52        7.526584435     2.031354089    -1.154590392       H   1  M0001
   53   C53        2.454584435     2.935354089     0.488409608    C.ar   1  M0001
   54   C54        1.366584435     2.265354089    -0.040590392    C.ar   1  M0001
   55   C55        2.251584435     3.963354089     1.469409608    C.ar   1  M0001
   56   C56        0.025584435     2.680354089     0.265409608    C.ar   1  M0001
   57   C57        0.922584435     4.347354089     1.804409608    C.ar   1  M0001
   58   C58        3.333584435     4.598354089     2.140409608    C.ar   1  M0001
   59   C59       -0.166415565     3.713354089     1.162409608    C.ar   1  M0001
   60   C60        0.710584435     5.370354089     2.770409608    C.ar   1  M0001
   61   C61        3.098584435     5.573354089     3.079409608    C.ar   1  M0001
   62   H62        4.357584435     4.296354089     1.916409608       H   1  M0001
   63   H63       -1.182415565     4.051354089     1.376409608       H   1  M0001
   64   C64        1.775584435     5.971354089     3.393409608    C.ar   1  M0001
   65   H65       -0.315415565     5.660354089     3.007409608       H   1  M0001
   66   H66        3.939584435     6.044354089     3.591409608       H   1  M0001
   67   H67        1.607584435     6.753354089     4.136409608       H   1  M0001
   68   S68        3.533584435     0.197354089     1.117409608    S.O2   1  M0001
   69   O69        2.943584435     0.805354089     2.271409608     O.2   1  M0001
   70   O70        4.318584435    -0.974645911     1.340409608     O.2   1  M0001
   71   S71        1.704584435     0.801354089    -1.017590392    S.O2   1  M0001
   72   O72        2.590584435     1.191354089    -2.066590392     O.2   1  M0001
   73   O73        0.475584435     0.172354089    -1.381590392     O.2   1  M0001
   74   N74        2.412584435    -0.194645911     0.029409608     N.3   1  M0001
   75   Li      -1.178670730     2.106500323    -0.420492247      Li   1  M0001
   76   Na       6.749152934    -0.319777585     0.144351904      Na   1  M0001
   77   O77       -2.634495405    -3.858234761    -0.392400764     O.3   1  M0001
   78   C78       -4.010805671    -3.733596982    -0.544375119     C.2   1  M0001
   79   O79       -4.576893287    -3.086171980    -1.416846641     O.2   1  M0001
   80   C80       -4.731839753    -4.617666822     0.482625089     C.3   1  M0001
   81   C81       -4.878314182    -6.015265168    -0.135083310     C.3   1  M0001
   82   H82       -3.899204096    -6.457641358    -0.352538302       H   1  M0001
   83   H83       -5.430753254    -5.975088944    -1.081103450       H   1  M0001
   84   H84       -5.412413444    -6.694106521     0.538883170       H   1  M0001
   85   C85       -3.957980682    -4.719404740     1.805665100     C.3   1  M0001
   86   H86       -3.014956542    -5.264385089     1.681466146       H   1  M0001
   87   H87       -4.540671333    -5.250027639     2.566967359       H   1  M0001
   88   H88       -3.707771608    -3.729943273     2.198960335       H   1  M0001
   89   C89       -6.125344556    -4.035445248     0.758937360     C.3   1  M0001
   90   H90       -6.730118791    -3.991924057    -0.154306770       H   1  M0001
   91   H91       -6.058154693    -3.016344041     1.150495439       H   1  M0001
   92   H92       -6.673202767    -4.641890394     1.488796824       H   1  M0001
@<TRIPOS>BOND
    1      1      2    ar
    2      1      6    ar
    3      1      8    1
    4      2      3    ar
    5      2     36    1
    6      2     37    1
    7      3      4    ar
    8      3     18    1
    9      4      5    ar
   10      4      7    1
   11      5      6    ar
   12      5     34    1
   13      8      9    ar
   14      8     16    ar
   15      9     10    ar
   16     10     12    ar
   17     10     13    1
   18     11     12    ar
   19     11     15    1
   20     11     16    ar
   21     12     14    1
   22     16     17    1
   23     18     19    1
   24     18     20    1
   25     18     21    1
   26     22     24    1
   27     22     25    1
   28     22     26    1
   29     22     34    1
   30     23     27    1
   31     23     28    1
   32     23     29    1
   33     23     34    1
   34     24     30    1
   35     24     31    1
   36     24     35    1
   37     27     32    1
   38     27     33    1
   39     27     35    1
   40     37     74    1
   41     38     39    ar
   42     38     43    ar
   43     38     44    1
   44     39     40    ar
   45     39     45    1
   46     40     41    ar
   47     40     46    ar
   48     41     42    ar
   49     41     47    ar
   50     42     43    ar
   51     42     48    1
   52     43     49    1
   53     46     51    ar
   54     46     53    1
   55     47     50    ar
   56     47     52    1
   57     50     51    ar
   58     51     68    1
   59     53     54    ar
   60     53     55    ar
   61     54     56    ar
   62     54     71    1
   63     55     57    ar
   64     55     58    ar
   65     56     59    ar
   66     57     59    ar
   67     57     60    ar
   68     58     61    ar
   69     58     62    1
   70     59     63    1
   71     60     64    ar
   72     60     65    1
   73     61     64    ar
   74     61     66    1
   75     64     67    1
   76     68     69    2
   77     68     70    2
   78     68     74    1
   79     71     72    2
   80     71     73    2
   81     71     74    1
   82     56     75    1
   83     50     76    1
   84      9     77    1
   85     77     78    1
   86     78     79    2
   87     78     80    1
   88     81     82    1
   89     81     83    1
   90     81     84    1
   91     80     81    1
   92     85     86    1
   93     85     87    1
   94     85     88    1
   95     80     85    1
   96     89     90    1
   97     89     91    1
   98     89     92    1
   99     80     89    1
