#
#	File Created by: Spartan '14 Export
#

@<TRIPOS>MOLECULE
M0001
80 87
SMALL
NO_CHARGES


@<TRIPOS>ATOM
    1   C1        -0.106055236    -1.877301810     0.641704168    C.ar   1  M0001
    2   C2         1.125944764    -1.989301810     1.420704168       C   1  M0001
    3   C3         1.051944764    -1.461301810     2.784704168    C.ar   1  M0001
    4   C4         0.013944764    -0.640301810     3.115704168    C.ar   1  M0001
    5   C5        -1.084055236    -0.480301810     2.207704168    C.ar   1  M0001
    6   N6        -1.107055236    -1.137301810     1.016704168    N.ar   1  M0001
    7   H7        -0.004055236    -0.192301810     4.105704168       H   1  M0001
    8   C8        -0.294055236    -2.556301810    -0.673295832    C.ar   1  M0001
    9   C9        -1.518055236    -3.192301810    -0.986295832    C.ar   1  M0001
   10   C10       -1.735055236    -3.657301810    -2.288295832    C.ar   1  M0001
   11   C11        0.459944764    -2.924301810    -2.972295832    C.ar   1  M0001
   12   C12       -0.764055236    -3.510301810    -3.277295832    C.ar   1  M0001
   13   H13       -2.672055236    -4.167301810    -2.517295832       H   1  M0001
   14   H14       -0.952055236    -3.876301810    -4.288295832       H   1  M0001
   15   H15        1.254944764    -2.806301810    -3.708295832       H   1  M0001
   16   C16        0.676944764    -2.475301810    -1.677295832    C.ar   1  M0001
   17   F17        1.863944764    -1.941301810    -1.396295832       F   1  M0001
   18   C18        2.122944764    -1.758301810     3.782704168     C.3   1  M0001
   19   H19        1.992944764    -2.789301810     4.150704168       H   1  M0001
   20   H20        3.118944764    -1.701301810     3.324704168       H   1  M0001
   21   H21        2.068944764    -1.065301810     4.629704168       H   1  M0001
   22   C22       -3.404055236     0.175698190     1.741704168     C.3   1  M0001
   23   C23       -2.293055236     1.107698190     3.673704168     C.3   1  M0001
   24   C24       -4.485055236    -0.346301810     2.681704168     C.3   1  M0001
   25   H25       -3.275055236    -0.484301810     0.877704168       H   1  M0001
   26   H26       -3.668055236     1.186698190     1.399704168       H   1  M0001
   27   C27       -3.420055236     0.560698190     4.544704168     C.3   1  M0001
   28   H28       -1.357055236     1.185698190     4.232704168       H   1  M0001
   29   H29       -2.566055236     2.114698190     3.320704168       H   1  M0001
   30   H30       -4.236055236    -1.382301810     2.981704168       H   1  M0001
   31   H31       -5.453055236    -0.355301810     2.162704168       H   1  M0001
   32   H32       -3.129055236    -0.435301810     4.931704168       H   1  M0001
   33   H33       -3.593055236     1.230698190     5.396704168       H   1  M0001
   34   N34       -2.149055236     0.264698190     2.491704168   N.pl3   1  M0001
   35   O35       -4.618055236     0.476698190     3.816704168     O.3   1  M0001
   36   I        2.229944764    -3.791301810     1.185704168       I   1  M0001
   37   H37        1.868944764    -1.082301810     0.886704168       H   1  M0001
   38   C38        4.834944764     6.098698190    -1.399295832    C.ar   1  M0001
   39   C39        4.150944764     5.157698190    -0.667295832    C.ar   1  M0001
   40   C40        4.780944764     3.941698190    -0.279295832    C.ar   1  M0001
   41   C41        6.123944764     3.712698190    -0.695295832    C.ar   1  M0001
   42   C42        6.809944764     4.710698190    -1.442295832    C.ar   1  M0001
   43   C43        6.180944764     5.880698190    -1.783295832    C.ar   1  M0001
   44   H44        4.332944764     7.021698190    -1.693295832       H   1  M0001
   45   H45        3.111944764     5.340698190    -0.394295832       H   1  M0001
   46   C46        4.110944764     2.930698190     0.489704168    C.ar   1  M0001
   47   C47        6.751944764     2.486698190    -0.380295832    C.ar   1  M0001
   48   H48        7.841944764     4.517698190    -1.743295832       H   1  M0001
   49   H49        6.709944764     6.641698190    -2.359295832       H   1  M0001
   50   C50        6.089944764     1.487698190     0.308704168    C.ar   1  M0001
   51   C51        4.750944764     1.733698190     0.750704168    C.ar   1  M0001
   52   H52        7.779944764     2.313698190    -0.705295832       H   1  M0001
   53   C53        2.707944764     3.217698190     0.937704168    C.ar   1  M0001
   54   C54        1.619944764     2.547698190     0.408704168    C.ar   1  M0001
   55   C55        2.504944764     4.245698190     1.918704168    C.ar   1  M0001
   56   C56        0.278944764     2.962698190     0.714704168    C.ar   1  M0001
   57   C57        1.175944764     4.629698190     2.253704168    C.ar   1  M0001
   58   C58        3.586944764     4.880698190     2.589704168    C.ar   1  M0001
   59   C59        0.086944764     3.995698190     1.611704168    C.ar   1  M0001
   60   C60        0.963944764     5.652698190     3.219704168    C.ar   1  M0001
   61   C61        3.351944764     5.855698190     3.528704168    C.ar   1  M0001
   62   H62        4.610944764     4.578698190     2.365704168       H   1  M0001
   63   H63       -0.929055236     4.333698190     1.825704168       H   1  M0001
   64   C64        2.028944764     6.253698190     3.842704168    C.ar   1  M0001
   65   H65       -0.062055236     5.942698190     3.456704168       H   1  M0001
   66   H66        4.192944764     6.326698190     4.040704168       H   1  M0001
   67   H67        1.860944764     7.035698190     4.585704168       H   1  M0001
   68   S68        3.786944764     0.479698190     1.566704168    S.O2   1  M0001
   69   O69        3.196944764     1.087698190     2.720704168     O.2   1  M0001
   70   O70        4.571944764    -0.692301810     1.789704168     O.2   1  M0001
   71   S71        1.957944764     1.083698190    -0.568295832    S.O2   1  M0001
   72   O72        2.843944764     1.473698190    -1.617295832     O.2   1  M0001
   73   O73        0.728944764     0.454698190    -0.932295832     O.2   1  M0001
   74   N74        2.665944764     0.087698190     0.478704168     N.3   1  M0001
   75   Li      -0.925310401     2.388844425     0.028802313      Li   1  M0001
   76   Na       7.002513263    -0.037433484     0.593646464      Na   1  M0001
   77   C77       -2.614797412    -3.419539864     0.021889660     C.3   1  M0001
   78   H78       -2.217364863    -3.571257053     1.030145358       H   1  M0001
   79   H79       -3.178025867    -4.328623032    -0.218890722       H   1  M0001
   80   H80       -3.313319064    -2.579479522     0.018737808       H   1  M0001
@<TRIPOS>BOND
    1      1      2    ar
    2      1      6    ar
    3      1      8    1
    4      2      3    ar
    5      2     36    1
    6      2     37    1
    7      3      4    ar
    8      3     18    1
    9      4      5    ar
   10      4      7    1
   11      5      6    ar
   12      5     34    1
   13      8      9    ar
   14      8     16    ar
   15      9     10    ar
   16     10     12    ar
   17     10     13    1
   18     11     12    ar
   19     11     15    1
   20     11     16    ar
   21     12     14    1
   22     16     17    1
   23     18     19    1
   24     18     20    1
   25     18     21    1
   26     22     24    1
   27     22     25    1
   28     22     26    1
   29     22     34    1
   30     23     27    1
   31     23     28    1
   32     23     29    1
   33     23     34    1
   34     24     30    1
   35     24     31    1
   36     24     35    1
   37     27     32    1
   38     27     33    1
   39     27     35    1
   40     37     74    1
   41     38     39    ar
   42     38     43    ar
   43     38     44    1
   44     39     40    ar
   45     39     45    1
   46     40     41    ar
   47     40     46    ar
   48     41     42    ar
   49     41     47    ar
   50     42     43    ar
   51     42     48    1
   52     43     49    1
   53     46     51    ar
   54     46     53    1
   55     47     50    ar
   56     47     52    1
   57     50     51    ar
   58     51     68    1
   59     53     54    ar
   60     53     55    ar
   61     54     56    ar
   62     54     71    1
   63     55     57    ar
   64     55     58    ar
   65     56     59    ar
   66     57     59    ar
   67     57     60    ar
   68     58     61    ar
   69     58     62    1
   70     59     63    1
   71     60     64    ar
   72     60     65    1
   73     61     64    ar
   74     61     66    1
   75     64     67    1
   76     68     69    2
   77     68     70    2
   78     68     74    1
   79     71     72    2
   80     71     73    2
   81     71     74    1
   82     56     75    1
   83     50     76    1
   84     77     78    1
   85     77     79    1
   86     77     80    1
   87      9     77    1
