#
#	File Created by: Spartan '14 Export
#

@<TRIPOS>MOLECULE
M0001
77 84
SMALL
NO_CHARGES


@<TRIPOS>ATOM
    1   C1        -0.194253680    -2.086120267     0.730815374    C.ar   1  M0001
    2   C2         1.037746320    -2.198120267     1.509815374       C   1  M0001
    3   C3         0.963746320    -1.670120267     2.873815374    C.ar   1  M0001
    4   C4        -0.074253680    -0.849120267     3.204815374    C.ar   1  M0001
    5   C5        -1.172253680    -0.689120267     2.296815374    C.ar   1  M0001
    6   N6        -1.195253680    -1.346120267     1.105815374    N.ar   1  M0001
    7   H7        -0.092253680    -0.401120267     4.194815374       H   1  M0001
    8   C8        -0.382253680    -2.765120267    -0.584184626    C.ar   1  M0001
    9   C9        -1.606253680    -3.401120267    -0.897184626    C.ar   1  M0001
   10   C10       -1.823253680    -3.866120267    -2.199184626    C.ar   1  M0001
   11   C11        0.371746320    -3.133120267    -2.883184626    C.ar   1  M0001
   12   C12       -0.852253680    -3.719120267    -3.188184626    C.ar   1  M0001
   13   H13       -2.760253680    -4.376120267    -2.428184626       H   1  M0001
   14   H14       -1.040253680    -4.085120267    -4.199184626       H   1  M0001
   15   H15        1.166746320    -3.015120267    -3.619184626       H   1  M0001
   16   C16        0.588746320    -2.684120267    -1.588184626    C.ar   1  M0001
   17   F17        1.775746320    -2.150120267    -1.307184626       F   1  M0001
   18   C18       -3.469151718    -0.360878226     1.897470025     C.3   1  M0001
   19   C19       -2.553091916     0.634827883     3.885896899     C.3   1  M0001
   20   C20       -4.562309884     0.430896591     2.599995820     C.3   1  M0001
   21   H21       -3.606378446    -1.449034980     2.038042786       H   1  M0001
   22   H22       -3.454920181    -0.129371638     0.826223312       H   1  M0001
   23   C23       -4.066975070     0.475951646     4.031980932     C.3   1  M0001
   24   H24       -2.064969462     0.143219968     4.732582563       H   1  M0001
   25   H25       -2.272935657     1.693960169     3.886109454       H   1  M0001
   26   H26       -5.546639633    -0.034911279     2.502816105       H   1  M0001
   27   H27       -4.617280957     1.446678404     2.190361215       H   1  M0001
   28   H28       -4.295014086    -0.472315821     4.534019413       H   1  M0001
   29   H29       -4.517304166     1.284762121     4.614228436       H   1  M0001
   30   N30       -2.237253680     0.055879733     2.580815374   N.pl3   1  M0001
   31   I        2.141746320    -4.000120267     1.274815374       I   1  M0001
   32   H32        1.780746320    -1.291120267     0.975815374       H   1  M0001
   33   C33        4.746746320     5.889879733    -1.310184626    C.ar   1  M0001
   34   C34        4.062746320     4.948879733    -0.578184626    C.ar   1  M0001
   35   C35        4.692746320     3.732879733    -0.190184626    C.ar   1  M0001
   36   C36        6.035746320     3.503879733    -0.606184626    C.ar   1  M0001
   37   C37        6.721746320     4.501879733    -1.353184626    C.ar   1  M0001
   38   C38        6.092746320     5.671879733    -1.694184626    C.ar   1  M0001
   39   H39        4.244746320     6.812879733    -1.604184626       H   1  M0001
   40   H40        3.023746320     5.131879733    -0.305184626       H   1  M0001
   41   C41        4.022746320     2.721879733     0.578815374    C.ar   1  M0001
   42   C42        6.663746320     2.277879733    -0.291184626    C.ar   1  M0001
   43   H43        7.753746320     4.308879733    -1.654184626       H   1  M0001
   44   H44        6.621746320     6.432879733    -2.270184626       H   1  M0001
   45   C45        6.001746320     1.278879733     0.397815374    C.ar   1  M0001
   46   C46        4.662746320     1.524879733     0.839815374    C.ar   1  M0001
   47   H47        7.691746320     2.104879733    -0.616184626       H   1  M0001
   48   C48        2.619746320     3.008879733     1.026815374    C.ar   1  M0001
   49   C49        1.531746320     2.338879733     0.497815374    C.ar   1  M0001
   50   C50        2.416746320     4.036879733     2.007815374    C.ar   1  M0001
   51   C51        0.190746320     2.753879733     0.803815374    C.ar   1  M0001
   52   C52        1.087746320     4.420879733     2.342815374    C.ar   1  M0001
   53   C53        3.498746320     4.671879733     2.678815374    C.ar   1  M0001
   54   C54       -0.001253680     3.786879733     1.700815374    C.ar   1  M0001
   55   C55        0.875746320     5.443879733     3.308815374    C.ar   1  M0001
   56   C56        3.263746320     5.646879733     3.617815374    C.ar   1  M0001
   57   H57        4.522746320     4.369879733     2.454815374       H   1  M0001
   58   H58       -1.017253680     4.124879733     1.914815374       H   1  M0001
   59   C59        1.940746320     6.044879733     3.931815374    C.ar   1  M0001
   60   H60       -0.150253680     5.733879733     3.545815374       H   1  M0001
   61   H61        4.104746320     6.117879733     4.129815374       H   1  M0001
   62   H62        1.772746320     6.826879733     4.674815374       H   1  M0001
   63   S63        3.698746320     0.270879733     1.655815374    S.O2   1  M0001
   64   O64        3.108746320     0.878879733     2.809815374     O.2   1  M0001
   65   O65        4.483746320    -0.901120267     1.878815374     O.2   1  M0001
   66   S66        1.869746320     0.874879733    -0.479184626    S.O2   1  M0001
   67   O67        2.755746320     1.264879733    -1.528184626     O.2   1  M0001
   68   O68        0.640746320     0.245879733    -0.843184626     O.2   1  M0001
   69   N69        2.577746320    -0.121120267     0.567815374     N.3   1  M0001
   70   Li      -1.013508844     2.180025968     0.117913519      Li   1  M0001
   71   Na       6.914314820    -0.246251941     0.682757670      Na   1  M0001
   72   Cl72       2.144729694    -1.987346508     4.100269659      Cl   1  M0001
   73   O73       -2.513251288    -3.611027250     0.112145435     O.3   1  M0001
   74   C74       -3.881109566    -3.503818004    -0.265959932     C.3   1  M0001
   75   H75       -4.224069002    -4.426567347    -0.743891007       H   1  M0001
   76   H76       -4.059344600    -2.636640007    -0.911506302       H   1  M0001
   77   H77       -4.470350100    -3.368299340     0.645974885       H   1  M0001
@<TRIPOS>BOND
    1      1      2    ar
    2      1      6    ar
    3      1      8    1
    4      2      3    ar
    5      2     31    1
    6      2     32    1
    7      3      4    ar
    8      4      5    ar
    9      4      7    1
   10      5      6    ar
   11      5     30    1
   12      8      9    ar
   13      8     16    ar
   14      9     10    ar
   15     10     12    ar
   16     10     13    1
   17     11     12    ar
   18     11     15    1
   19     11     16    ar
   20     12     14    1
   21     16     17    1
   22     18     20    1
   23     18     21    1
   24     18     22    1
   25     18     30    1
   26     19     23    1
   27     19     24    1
   28     19     25    1
   29     19     30    1
   30     20     26    1
   31     20     27    1
   32     23     28    1
   33     23     29    1
   34     32     69    1
   35     33     34    ar
   36     33     38    ar
   37     33     39    1
   38     34     35    ar
   39     34     40    1
   40     35     36    ar
   41     35     41    ar
   42     36     37    ar
   43     36     42    ar
   44     37     38    ar
   45     37     43    1
   46     38     44    1
   47     41     46    ar
   48     41     48    1
   49     42     45    ar
   50     42     47    1
   51     45     46    ar
   52     46     63    1
   53     48     49    ar
   54     48     50    ar
   55     49     51    ar
   56     49     66    1
   57     50     52    ar
   58     50     53    ar
   59     51     54    ar
   60     52     54    ar
   61     52     55    ar
   62     53     56    ar
   63     53     57    1
   64     54     58    1
   65     55     59    ar
   66     55     60    1
   67     56     59    ar
   68     56     61    1
   69     59     62    1
   70     63     64    2
   71     63     65    2
   72     63     69    1
   73     66     67    2
   74     66     68    2
   75     66     69    1
   76     51     70    1
   77     45     71    1
   78     23     20    1
   79      3     72    1
   80      9     73    1
   81     74     75    1
   82     74     76    1
   83     74     77    1
   84     73     74    1
