#
#	File Created by: Spartan '14 Export
#

@<TRIPOS>MOLECULE
M0001
81 88
SMALL
NO_CHARGES


@<TRIPOS>ATOM
    1   C1        -0.399882885    -2.174921599     0.480404688    C.ar   1  M0001
    2   C2         0.832117115    -2.286921599     1.259404688       C   1  M0001
    3   C3         0.758117115    -1.758921599     2.623404688    C.ar   1  M0001
    4   C4        -0.279882885    -0.937921599     2.954404688    C.ar   1  M0001
    5   C5        -1.377882885    -0.777921599     2.046404688    C.ar   1  M0001
    6   N6        -1.400882885    -1.434921599     0.855404688    N.ar   1  M0001
    7   H7        -0.297882885    -0.489921599     3.944404688       H   1  M0001
    8   C8        -0.587882885    -2.853921599    -0.834595312    C.ar   1  M0001
    9   C9        -1.811882885    -3.489921599    -1.147595312    C.ar   1  M0001
   10   C10       -2.028882885    -3.954921599    -2.449595312    C.ar   1  M0001
   11   C11        0.166117115    -3.221921599    -3.133595312    C.ar   1  M0001
   12   C12       -1.057882885    -3.807921599    -3.438595312    C.ar   1  M0001
   13   H13       -2.965882885    -4.464921599    -2.678595312       H   1  M0001
   14   H14       -1.245882885    -4.173921599    -4.449595312       H   1  M0001
   15   H15        0.961117115    -3.103921599    -3.869595312       H   1  M0001
   16   C16        0.383117115    -2.772921599    -1.838595312    C.ar   1  M0001
   17   F17        1.570117115    -2.238921599    -1.557595312       F   1  M0001
   18   C18        1.829117115    -2.055921599     3.621404688     C.3   1  M0001
   19   H19        1.699117115    -3.086921599     3.989404688       H   1  M0001
   20   H20        2.825117115    -1.998921599     3.163404688       H   1  M0001
   21   H21        1.775117115    -1.362921599     4.468404688       H   1  M0001
   22   C22       -3.697882885    -0.121921599     1.580404688     C.3   1  M0001
   23   C23       -2.586882885     0.810078401     3.512404688     C.3   1  M0001
   24   C24       -4.778882885    -0.643921599     2.520404688     C.3   1  M0001
   25   H25       -3.568882885    -0.781921599     0.716404688       H   1  M0001
   26   H26       -3.961882885     0.889078401     1.238404688       H   1  M0001
   27   C27       -3.713882885     0.263078401     4.383404688     C.3   1  M0001
   28   H28       -1.650882885     0.888078401     4.071404688       H   1  M0001
   29   H29       -2.859882885     1.817078401     3.159404688       H   1  M0001
   30   H30       -4.529882885    -1.679921599     2.820404688       H   1  M0001
   31   H31       -5.746882885    -0.652921599     2.001404688       H   1  M0001
   32   H32       -3.422882885    -0.732921599     4.770404688       H   1  M0001
   33   H33       -3.886882885     0.933078401     5.235404688       H   1  M0001
   34   N34       -2.442882885    -0.032921599     2.330404688   N.pl3   1  M0001
   35   O35       -4.911882885     0.179078401     3.655404688     O.3   1  M0001
   36   I        1.936117115    -4.088921599     1.024404688       I   1  M0001
   37   H37        1.575117115    -1.379921599     0.725404688       H   1  M0001
   38   C38        4.541117115     5.801078401    -1.560595312    C.ar   1  M0001
   39   C39        3.857117115     4.860078401    -0.828595312    C.ar   1  M0001
   40   C40        4.487117115     3.644078401    -0.440595312    C.ar   1  M0001
   41   C41        5.830117115     3.415078401    -0.856595312    C.ar   1  M0001
   42   C42        6.516117115     4.413078401    -1.603595312    C.ar   1  M0001
   43   C43        5.887117115     5.583078401    -1.944595312    C.ar   1  M0001
   44   H44        4.039117115     6.724078401    -1.854595312       H   1  M0001
   45   H45        2.818117115     5.043078401    -0.555595312       H   1  M0001
   46   C46        3.817117115     2.633078401     0.328404688    C.ar   1  M0001
   47   C47        6.458117115     2.189078401    -0.541595312    C.ar   1  M0001
   48   H48        7.548117115     4.220078401    -1.904595312       H   1  M0001
   49   H49        6.416117115     6.344078401    -2.520595312       H   1  M0001
   50   C50        5.796117115     1.190078401     0.147404688    C.ar   1  M0001
   51   C51        4.457117115     1.436078401     0.589404688    C.ar   1  M0001
   52   H52        7.486117115     2.016078401    -0.866595312       H   1  M0001
   53   C53        2.414117115     2.920078401     0.776404688    C.ar   1  M0001
   54   C54        1.326117115     2.250078401     0.247404688    C.ar   1  M0001
   55   C55        2.211117115     3.948078401     1.757404688    C.ar   1  M0001
   56   C56       -0.014882885     2.665078401     0.553404688    C.ar   1  M0001
   57   C57        0.882117115     4.332078401     2.092404688    C.ar   1  M0001
   58   C58        3.293117115     4.583078401     2.428404688    C.ar   1  M0001
   59   C59       -0.206882885     3.698078401     1.450404688    C.ar   1  M0001
   60   C60        0.670117115     5.355078401     3.058404688    C.ar   1  M0001
   61   C61        3.058117115     5.558078401     3.367404688    C.ar   1  M0001
   62   H62        4.317117115     4.281078401     2.204404688       H   1  M0001
   63   H63       -1.222882885     4.036078401     1.664404688       H   1  M0001
   64   C64        1.735117115     5.956078401     3.681404688    C.ar   1  M0001
   65   H65       -0.355882885     5.645078401     3.295404688       H   1  M0001
   66   H66        3.899117115     6.029078401     3.879404688       H   1  M0001
   67   H67        1.567117115     6.738078401     4.424404688       H   1  M0001
   68   S68        3.493117115     0.182078401     1.405404688    S.O2   1  M0001
   69   O69        2.903117115     0.790078401     2.559404688     O.2   1  M0001
   70   O70        4.278117115    -0.989921599     1.628404688     O.2   1  M0001
   71   S71        1.664117115     0.786078401    -0.729595312    S.O2   1  M0001
   72   O72        2.550117115     1.176078401    -1.778595312     O.2   1  M0001
   73   O73        0.435117115     0.157078401    -1.093595312     O.2   1  M0001
   74   N74        2.372117115    -0.209921599     0.317404688     N.3   1  M0001
   75   Li      -1.219138050     2.091224636    -0.132497167      Li   1  M0001
   76   Na       6.708685614    -0.335053273     0.432346984      Na   1  M0001
   77   O77       -2.722267958    -3.708133270    -0.143752743     O.3   1  M0001
   78   C78       -4.079031772    -3.488735493    -0.513847779     C.3   1  M0001
   79   H79       -4.490518693    -4.373466327    -1.009215261       H   1  M0001
   80   H80       -4.195282230    -2.599574943    -1.143729994       H   1  M0001
   81   H81       -4.652681509    -3.325586560     0.403645801       H   1  M0001
@<TRIPOS>BOND
    1      1      2    ar
    2      1      6    ar
    3      1      8    1
    4      2      3    ar
    5      2     36    1
    6      2     37    1
    7      3      4    ar
    8      3     18    1
    9      4      5    ar
   10      4      7    1
   11      5      6    ar
   12      5     34    1
   13      8      9    ar
   14      8     16    ar
   15      9     10    ar
   16     10     12    ar
   17     10     13    1
   18     11     12    ar
   19     11     15    1
   20     11     16    ar
   21     12     14    1
   22     16     17    1
   23     18     19    1
   24     18     20    1
   25     18     21    1
   26     22     24    1
   27     22     25    1
   28     22     26    1
   29     22     34    1
   30     23     27    1
   31     23     28    1
   32     23     29    1
   33     23     34    1
   34     24     30    1
   35     24     31    1
   36     24     35    1
   37     27     32    1
   38     27     33    1
   39     27     35    1
   40     37     74    1
   41     38     39    ar
   42     38     43    ar
   43     38     44    1
   44     39     40    ar
   45     39     45    1
   46     40     41    ar
   47     40     46    ar
   48     41     42    ar
   49     41     47    ar
   50     42     43    ar
   51     42     48    1
   52     43     49    1
   53     46     51    ar
   54     46     53    1
   55     47     50    ar
   56     47     52    1
   57     50     51    ar
   58     51     68    1
   59     53     54    ar
   60     53     55    ar
   61     54     56    ar
   62     54     71    1
   63     55     57    ar
   64     55     58    ar
   65     56     59    ar
   66     57     59    ar
   67     57     60    ar
   68     58     61    ar
   69     58     62    1
   70     59     63    1
   71     60     64    ar
   72     60     65    1
   73     61     64    ar
   74     61     66    1
   75     64     67    1
   76     68     69    2
   77     68     70    2
   78     68     74    1
   79     71     72    2
   80     71     73    2
   81     71     74    1
   82     56     75    1
   83     50     76    1
   84      9     77    1
   85     78     79    1
   86     78     80    1
   87     78     81    1
   88     77     78    1
