#
#	File Created by: Spartan '14 Export
#

@<TRIPOS>MOLECULE
M0001
87 95
SMALL
NO_CHARGES


@<TRIPOS>ATOM
    1   C1        -0.190302602    -2.084282244     0.764898357    C.ar   1  M0001
    2   C2         1.041697398    -2.196282244     1.543898357       C   1  M0001
    3   C3         0.967697398    -1.668282244     2.907898357    C.ar   1  M0001
    4   C4        -0.070302602    -0.847282244     3.238898357    C.ar   1  M0001
    5   C5        -1.168302602    -0.687282244     2.330898357    C.ar   1  M0001
    6   N6        -1.191302602    -1.344282244     1.139898357    N.ar   1  M0001
    7   H7        -0.088302602    -0.399282244     4.228898357       H   1  M0001
    8   C8        -0.378302602    -2.763282244    -0.550101643    C.ar   1  M0001
    9   C9        -1.602302602    -3.399282244    -0.863101643    C.ar   1  M0001
   10   C10       -1.819302602    -3.864282244    -2.165101643    C.ar   1  M0001
   11   C11        0.375697398    -3.131282244    -2.849101643    C.ar   1  M0001
   12   C12       -0.848302602    -3.717282244    -3.154101643    C.ar   1  M0001
   13   H13       -2.756302602    -4.374282244    -2.394101643       H   1  M0001
   14   H14       -1.036302602    -4.083282244    -4.165101643       H   1  M0001
   15   H15        1.170697398    -3.013282244    -3.585101643       H   1  M0001
   16   C16        0.592697398    -2.682282244    -1.554101643    C.ar   1  M0001
   17   F17        1.779697398    -2.148282244    -1.273101643       F   1  M0001
   18   C18       -3.465896754    -0.358475746     1.933166352     C.3   1  M0001
   19   C19       -2.547980695     0.638106884     3.919899387     C.3   1  M0001
   20   C20       -4.558854801     0.431711882     2.637539354     C.3   1  M0001
   21   H21       -3.602427368    -1.447196956     2.072125769       H   1  M0001
   22   H22       -3.452983208    -0.126027559     0.862092313       H   1  M0001
   23   C23       -4.061329023     0.476914801     4.068671878     C.3   1  M0001
   24   H24       -2.057784555     0.148706160     4.766626716       H   1  M0001
   25   H25       -2.269598918     1.697708559     3.917977675       H   1  M0001
   26   H26       -5.542740671    -0.035320908     2.541702555       H   1  M0001
   27   H27       -4.615728900     1.447528897     2.228267358       H   1  M0001
   28   H28       -4.287092749    -0.471912845     4.570683953       H   1  M0001
   29   H29       -4.511839446     1.284852894     4.651980386       H   1  M0001
   30   N30       -2.233302602     0.057717756     2.614898357   N.pl3   1  M0001
   31   I        2.145697398    -3.998282244     1.308898357       I   1  M0001
   32   H32        1.784697398    -1.289282244     1.009898357       H   1  M0001
   33   C33        4.750697398     5.891717756    -1.276101643    C.ar   1  M0001
   34   C34        4.066697398     4.950717756    -0.544101643    C.ar   1  M0001
   35   C35        4.696697398     3.734717756    -0.156101643    C.ar   1  M0001
   36   C36        6.039697398     3.505717756    -0.572101643    C.ar   1  M0001
   37   C37        6.725697398     4.503717756    -1.319101643    C.ar   1  M0001
   38   C38        6.096697398     5.673717756    -1.660101643    C.ar   1  M0001
   39   H39        4.248697398     6.814717756    -1.570101643       H   1  M0001
   40   H40        3.027697398     5.133717756    -0.271101643       H   1  M0001
   41   C41        4.026697398     2.723717756     0.612898357    C.ar   1  M0001
   42   C42        6.667697398     2.279717756    -0.257101643    C.ar   1  M0001
   43   H43        7.757697398     4.310717756    -1.620101643       H   1  M0001
   44   H44        6.625697398     6.434717756    -2.236101643       H   1  M0001
   45   C45        6.005697398     1.280717756     0.431898357    C.ar   1  M0001
   46   C46        4.666697398     1.526717756     0.873898357    C.ar   1  M0001
   47   H47        7.695697398     2.106717756    -0.582101643       H   1  M0001
   48   C48        2.623697398     3.010717756     1.060898357    C.ar   1  M0001
   49   C49        1.535697398     2.340717756     0.531898357    C.ar   1  M0001
   50   C50        2.420697398     4.038717756     2.041898357    C.ar   1  M0001
   51   C51        0.194697398     2.755717756     0.837898357    C.ar   1  M0001
   52   C52        1.091697398     4.422717756     2.376898357    C.ar   1  M0001
   53   C53        3.502697398     4.673717756     2.712898357    C.ar   1  M0001
   54   C54        0.002697398     3.788717756     1.734898357    C.ar   1  M0001
   55   C55        0.879697398     5.445717756     3.342898357    C.ar   1  M0001
   56   C56        3.267697398     5.648717756     3.651898357    C.ar   1  M0001
   57   H57        4.526697398     4.371717756     2.488898357       H   1  M0001
   58   H58       -1.013302602     4.126717756     1.948898357       H   1  M0001
   59   C59        1.944697398     6.046717756     3.965898357    C.ar   1  M0001
   60   H60       -0.146302602     5.735717756     3.579898357       H   1  M0001
   61   H61        4.108697398     6.119717756     4.163898357       H   1  M0001
   62   H62        1.776697398     6.828717756     4.708898357       H   1  M0001
   63   S63        3.702697398     0.272717756     1.689898357    S.O2   1  M0001
   64   O64        3.112697398     0.880717756     2.843898357     O.2   1  M0001
   65   O65        4.487697398    -0.899282244     1.912898357     O.2   1  M0001
   66   S66        1.873697398     0.876717756    -0.445101643    S.O2   1  M0001
   67   O67        2.759697398     1.266717756    -1.494101643     O.2   1  M0001
   68   O68        0.644697398     0.247717756    -0.809101643     O.2   1  M0001
   69   N69        2.581697398    -0.119282244     0.601898357     N.3   1  M0001
   70   Li      -1.009557767     2.181863991     0.151996502      Li   1  M0001
   71   Na       6.918265897    -0.244413917     0.716840653      Na   1  M0001
   72   Cl72       2.148394962    -1.985842245     4.134455282      Cl   1  M0001
   73   O73       -2.503224799    -3.616860793     0.150095047     O.3   1  M0001
   74   C74       -3.890859126    -3.533557283    -0.190137393     C.3   1  M0001
   75   H75       -4.056418452    -2.869389540    -1.048549182       H   1  M0001
   76   H76       -4.399279936    -3.068370623     0.661303970       H   1  M0001
   77   C77       -4.528737483    -4.890114682    -0.395483872    C.ar   1  M0001
   78   C78       -5.778166751    -7.378848824    -0.750805979    C.ar   1  M0001
   79   C79       -5.636431716    -5.018147320    -1.247101980    C.ar   1  M0001
   80   C80       -4.070554252    -6.023613052     0.291198057    C.ar   1  M0001
   81   C81       -4.688451097    -7.261919709     0.109455114    C.ar   1  M0001
   82   C82       -6.253773421    -6.257323732    -1.427155468    C.ar   1  M0001
   83   H83       -6.024830053    -4.152128442    -1.778643600       H   1  M0001
   84   H84       -3.222472422    -5.947861991     0.969570573       H   1  M0001
   85   H85       -4.318074935    -8.134484564     0.641314507       H   1  M0001
   86   H86       -7.107552284    -6.347621822    -2.093671534       H   1  M0001
   87   H87       -6.258239428    -8.343681490    -0.890984743       H   1  M0001
@<TRIPOS>BOND
    1      1      2    ar
    2      1      6    ar
    3      1      8    1
    4      2      3    ar
    5      2     31    1
    6      2     32    1
    7      3      4    ar
    8      4      5    ar
    9      4      7    1
   10      5      6    ar
   11      5     30    1
   12      8      9    ar
   13      8     16    ar
   14      9     10    ar
   15     10     12    ar
   16     10     13    1
   17     11     12    ar
   18     11     15    1
   19     11     16    ar
   20     12     14    1
   21     16     17    1
   22     18     20    1
   23     18     21    1
   24     18     22    1
   25     18     30    1
   26     19     23    1
   27     19     24    1
   28     19     25    1
   29     19     30    1
   30     20     26    1
   31     20     27    1
   32     23     28    1
   33     23     29    1
   34     32     69    1
   35     33     34    ar
   36     33     38    ar
   37     33     39    1
   38     34     35    ar
   39     34     40    1
   40     35     36    ar
   41     35     41    ar
   42     36     37    ar
   43     36     42    ar
   44     37     38    ar
   45     37     43    1
   46     38     44    1
   47     41     46    ar
   48     41     48    1
   49     42     45    ar
   50     42     47    1
   51     45     46    ar
   52     46     63    1
   53     48     49    ar
   54     48     50    ar
   55     49     51    ar
   56     49     66    1
   57     50     52    ar
   58     50     53    ar
   59     51     54    ar
   60     52     54    ar
   61     52     55    ar
   62     53     56    ar
   63     53     57    1
   64     54     58    1
   65     55     59    ar
   66     55     60    1
   67     56     59    ar
   68     56     61    1
   69     59     62    1
   70     63     64    2
   71     63     65    2
   72     63     69    1
   73     66     67    2
   74     66     68    2
   75     66     69    1
   76     51     70    1
   77     45     71    1
   78     23     20    1
   79      3     72    1
   80      9     73    1
   81     74     75    1
   82     74     76    1
   83     73     74    1
   84     77     80    ar
   85     80     81    ar
   86     78     81    ar
   87     78     82    ar
   88     79     82    ar
   89     77     79    ar
   90     81     85    1
   91     82     86    1
   92     78     87    1
   93     79     83    1
   94     80     84    1
   95     74     77    1
