#
#	File Created by: Spartan '14 Export
#

@<TRIPOS>MOLECULE
M0001
80 87
SMALL
NO_CHARGES


@<TRIPOS>ATOM
    1   C1        -0.177674016    -2.016287672     0.762103488    C.ar   1  M0001
    2   C2         1.054325984    -2.128287672     1.541103488       C   1  M0001
    3   C3         0.980325984    -1.600287672     2.905103488    C.ar   1  M0001
    4   C4        -0.057674016    -0.779287672     3.236103488    C.ar   1  M0001
    5   C5        -1.155674016    -0.619287672     2.328103488    C.ar   1  M0001
    6   N6        -1.178674016    -1.276287672     1.137103488    N.ar   1  M0001
    7   H7        -0.075674016    -0.331287672     4.226103488       H   1  M0001
    8   C8        -0.365674016    -2.695287672    -0.552896512    C.ar   1  M0001
    9   C9        -1.589674016    -3.331287672    -0.865896512    C.ar   1  M0001
   10   C10       -1.806674016    -3.796287672    -2.167896512    C.ar   1  M0001
   11   C11        0.388325984    -3.063287672    -2.851896512    C.ar   1  M0001
   12   C12       -0.835674016    -3.649287672    -3.156896512    C.ar   1  M0001
   13   C13        0.605325984    -2.614287672    -1.556896512    C.ar   1  M0001
   14   F14        1.792325984    -2.080287672    -1.275896512       F   1  M0001
   15   C15       -3.452692648    -0.291575170     1.925433867     C.3   1  M0001
   16   C16       -2.538546555     0.712784462     3.912330201     C.3   1  M0001
   17   C17       -4.546202862     0.502787206     2.624919953     C.3   1  M0001
   18   H18       -3.589798782    -1.379202385     2.069330901       H   1  M0001
   19   H19       -3.435656784    -0.061973207     0.853874700       H   1  M0001
   20   C20       -4.052274227     0.552459405     4.057429041     C.3   1  M0001
   21   H21       -2.049708046     0.227585597     4.762291559       H   1  M0001
   22   H22       -2.260097881     1.772344173     3.905758375       H   1  M0001
   23   H23       -5.530655741     0.037117124     2.528389643       H   1  M0001
   24   H24       -4.600462752     1.517295896     2.212029933       H   1  M0001
   25   H25       -4.279695217    -0.394653111     4.561918766       H   1  M0001
   26   H26       -4.504125620     1.362446808     4.636852003       H   1  M0001
   27   N27       -2.220674016     0.125712328     2.612103488   N.pl3   1  M0001
   28   I        2.158325984    -3.930287672     1.306103488       I   1  M0001
   29   H29        1.797325984    -1.221287672     1.007103488       H   1  M0001
   30   C30        4.763325984     5.959712328    -1.278896512    C.ar   1  M0001
   31   C31        4.079325984     5.018712328    -0.546896512    C.ar   1  M0001
   32   C32        4.709325984     3.802712328    -0.158896512    C.ar   1  M0001
   33   C33        6.052325984     3.573712328    -0.574896512    C.ar   1  M0001
   34   C34        6.738325984     4.571712328    -1.321896512    C.ar   1  M0001
   35   C35        6.109325984     5.741712328    -1.662896512    C.ar   1  M0001
   36   H36        4.261325984     6.882712328    -1.572896512       H   1  M0001
   37   H37        3.040325984     5.201712328    -0.273896512       H   1  M0001
   38   C38        4.039325984     2.791712328     0.610103488    C.ar   1  M0001
   39   C39        6.680325984     2.347712328    -0.259896512    C.ar   1  M0001
   40   H40        7.770325984     4.378712328    -1.622896512       H   1  M0001
   41   H41        6.638325984     6.502712328    -2.238896512       H   1  M0001
   42   C42        6.018325984     1.348712328     0.429103488    C.ar   1  M0001
   43   C43        4.679325984     1.594712328     0.871103488    C.ar   1  M0001
   44   H44        7.708325984     2.174712328    -0.584896512       H   1  M0001
   45   C45        2.636325984     3.078712328     1.058103488    C.ar   1  M0001
   46   C46        1.548325984     2.408712328     0.529103488    C.ar   1  M0001
   47   C47        2.433325984     4.106712328     2.039103488    C.ar   1  M0001
   48   C48        0.207325984     2.823712328     0.835103488    C.ar   1  M0001
   49   C49        1.104325984     4.490712328     2.374103488    C.ar   1  M0001
   50   C50        3.515325984     4.741712328     2.710103488    C.ar   1  M0001
   51   C51        0.015325984     3.856712328     1.732103488    C.ar   1  M0001
   52   C52        0.892325984     5.513712328     3.340103488    C.ar   1  M0001
   53   C53        3.280325984     5.716712328     3.649103488    C.ar   1  M0001
   54   H54        4.539325984     4.439712328     2.486103488       H   1  M0001
   55   H55       -1.000674016     4.194712328     1.946103488       H   1  M0001
   56   C56        1.957325984     6.114712328     3.963103488    C.ar   1  M0001
   57   H57       -0.133674016     5.803712328     3.577103488       H   1  M0001
   58   H58        4.121325984     6.187712328     4.161103488       H   1  M0001
   59   H59        1.789325984     6.896712328     4.706103488       H   1  M0001
   60   S60        3.715325984     0.340712328     1.687103488    S.O2   1  M0001
   61   O61        3.125325984     0.948712328     2.841103488     O.2   1  M0001
   62   O62        4.500325984    -0.831287672     1.910103488     O.2   1  M0001
   63   S63        1.886325984     0.944712328    -0.447896512    S.O2   1  M0001
   64   O64        2.772325984     1.334712328    -1.496896512     O.2   1  M0001
   65   O65        0.657325984     0.315712328    -0.811896512     O.2   1  M0001
   66   N66        2.594325984    -0.051287672     0.599103488     N.3   1  M0001
   67   Li      -0.996929181     2.249858563     0.149201634      Li   1  M0001
   68   Na       6.930894483    -0.176419345     0.714045784      Na   1  M0001
   69   Cl69       2.158940032    -1.921292475     4.132496918      Cl   1  M0001
   70   O70       -2.621334004    -3.504931014     0.018876338     O.3   1  M0001
   71   C71       -2.332269308    -4.560356247     0.935279411     C.3   1  M0001
   72   H72       -1.980315565    -5.460842800     0.418919122       H   1  M0001
   73   H73       -3.261194615    -4.812388370     1.455698872       H   1  M0001
   74   H74       -1.603852402    -4.244438558     1.687699814       H   1  M0001
   75   H75       -1.045183734    -3.977795901    -4.181300739       H   1  M0001
   76   H76       -2.772115321    -4.255852270    -2.408602695       H   1  M0001
   77   C77        1.505186652    -2.897514642    -3.885870665     C.3   1  M0001
   78   H78        2.478469600    -2.977287558    -3.388304001       H   1  M0001
   79   H79        1.418309623    -1.914695910    -4.363087306       H   1  M0001
   80   H80        1.418309623    -3.681888109    -4.646414316       H   1  M0001
@<TRIPOS>BOND
    1      1      2    ar
    2      1      6    ar
    3      1      8    1
    4      2      3    ar
    5      2     28    1
    6      2     29    1
    7      3      4    ar
    8      4      5    ar
    9      4      7    1
   10      5      6    ar
   11      5     27    1
   12      8      9    ar
   13      8     13    ar
   14      9     10    ar
   15     10     12    ar
   16     11     12    ar
   17     11     13    ar
   18     13     14    1
   19     15     17    1
   20     15     18    1
   21     15     19    1
   22     15     27    1
   23     16     20    1
   24     16     21    1
   25     16     22    1
   26     16     27    1
   27     17     23    1
   28     17     24    1
   29     20     25    1
   30     20     26    1
   31     29     66    1
   32     30     31    ar
   33     30     35    ar
   34     30     36    1
   35     31     32    ar
   36     31     37    1
   37     32     33    ar
   38     32     38    ar
   39     33     34    ar
   40     33     39    ar
   41     34     35    ar
   42     34     40    1
   43     35     41    1
   44     38     43    ar
   45     38     45    1
   46     39     42    ar
   47     39     44    1
   48     42     43    ar
   49     43     60    1
   50     45     46    ar
   51     45     47    ar
   52     46     48    ar
   53     46     63    1
   54     47     49    ar
   55     47     50    ar
   56     48     51    ar
   57     49     51    ar
   58     49     52    ar
   59     50     53    ar
   60     50     54    1
   61     51     55    1
   62     52     56    ar
   63     52     57    1
   64     53     56    ar
   65     53     58    1
   66     56     59    1
   67     60     61    2
   68     60     62    2
   69     60     66    1
   70     63     64    2
   71     63     65    2
   72     63     66    1
   73     48     67    1
   74     42     68    1
   75     20     17    1
   76      3     69    1
   77      9     70    1
   78     71     72    1
   79     71     73    1
   80     71     74    1
   81     70     71    1
   82     12     75    1
   83     10     76    1
   84     77     78    1
   85     77     79    1
   86     77     80    1
   87     11     77    1
