#
#	File Created by: Spartan '14 Export
#

@<TRIPOS>MOLECULE
M0001
87 95
SMALL
NO_CHARGES


@<TRIPOS>ATOM
    1   C1        -0.307905983    -1.216188034     0.963000000    C.ar   1  M0001
    2   C2         0.924094017    -1.328188034     1.742000000       C   1  M0001
    3   C3         0.850094017    -0.800188034     3.106000000    C.ar   1  M0001
    4   C4        -0.187905983     0.020811966     3.437000000    C.ar   1  M0001
    5   C5        -1.285905983     0.180811966     2.529000000    C.ar   1  M0001
    6   N6        -1.308905983    -0.476188034     1.338000000    N.ar   1  M0001
    7   H7        -0.205905983     0.468811966     4.427000000       H   1  M0001
    8   C8        -0.495905983    -1.895188034    -0.352000000    C.ar   1  M0001
    9   C9        -1.719905983    -2.531188034    -0.665000000    C.ar   1  M0001
   10   C10       -1.936905983    -2.996188034    -1.967000000    C.ar   1  M0001
   11   C11        0.258094017    -2.263188034    -2.651000000    C.ar   1  M0001
   12   C12       -0.965905983    -2.849188034    -2.956000000    C.ar   1  M0001
   13   H13       -2.873905983    -3.506188034    -2.196000000       H   1  M0001
   14   H14       -1.153905983    -3.215188034    -3.967000000       H   1  M0001
   15   H15        1.053094017    -2.145188034    -3.387000000       H   1  M0001
   16   C16        0.475094017    -1.814188034    -1.356000000    C.ar   1  M0001
   17   C17       -2.758905983    -2.794188034     0.370000000    C.ar   1  M0001
   18   C18       -4.108905983    -2.525188034     0.110000000    C.ar   1  M0001
   19   C19       -2.408905983    -3.370188034     1.600000000    C.ar   1  M0001
   20   C20       -5.085905983    -2.811188034     1.065000000    C.ar   1  M0001
   21   H21       -4.393905983    -2.072188034    -0.841000000       H   1  M0001
   22   C22       -3.383905983    -3.660188034     2.551000000    C.ar   1  M0001
   23   H23       -1.359905983    -3.603188034     1.804000000       H   1  M0001
   24   C24       -4.726905983    -3.380188034     2.287000000    C.ar   1  M0001
   25   H25       -6.131905983    -2.586188034     0.851000000       H   1  M0001
   26   H26       -3.095905983    -4.115188034     3.500000000       H   1  M0001
   27   H27       -5.491905983    -3.606188034     3.032000000       H   1  M0001
   28   F28        1.662094017    -1.280188034    -1.075000000       F   1  M0001
   29   C29        1.921094017    -1.097188034     4.104000000     C.3   1  M0001
   30   H30        1.791094017    -2.128188034     4.472000000       H   1  M0001
   31   H31        2.917094017    -1.040188034     3.646000000       H   1  M0001
   32   H32        1.867094017    -0.404188034     4.951000000       H   1  M0001
   33   C33       -3.605905983     0.836811966     2.063000000     C.3   1  M0001
   34   C34       -2.494905983     1.768811966     3.995000000     C.3   1  M0001
   35   C35       -4.686905983     0.314811966     3.003000000     C.3   1  M0001
   36   H36       -3.476905983     0.176811966     1.199000000       H   1  M0001
   37   H37       -3.869905983     1.847811966     1.721000000       H   1  M0001
   38   C38       -3.621905983     1.221811966     4.866000000     C.3   1  M0001
   39   H39       -1.558905983     1.846811966     4.554000000       H   1  M0001
   40   H40       -2.767905983     2.775811966     3.642000000       H   1  M0001
   41   H41       -4.437905983    -0.721188034     3.303000000       H   1  M0001
   42   H42       -5.654905983     0.305811966     2.484000000       H   1  M0001
   43   H43       -3.330905983     0.225811966     5.253000000       H   1  M0001
   44   H44       -3.794905983     1.891811966     5.718000000       H   1  M0001
   45   N45       -2.350905983     0.925811966     2.813000000   N.pl3   1  M0001
   46   O46       -4.819905983     1.137811966     4.138000000     O.3   1  M0001
   47   I        2.028094017    -3.130188034     1.507000000       I   1  M0001
   48   H48        1.667094017    -0.421188034     1.208000000       H   1  M0001
   49   C49        4.633094017     6.759811966    -1.078000000    C.ar   1  M0001
   50   C50        3.949094017     5.818811966    -0.346000000    C.ar   1  M0001
   51   C51        4.579094017     4.602811966     0.042000000    C.ar   1  M0001
   52   C52        5.922094017     4.373811966    -0.374000000    C.ar   1  M0001
   53   C53        6.608094017     5.371811966    -1.121000000    C.ar   1  M0001
   54   C54        5.979094017     6.541811966    -1.462000000    C.ar   1  M0001
   55   H55        4.131094017     7.682811966    -1.372000000       H   1  M0001
   56   H56        2.910094017     6.001811966    -0.073000000       H   1  M0001
   57   C57        3.909094017     3.591811966     0.811000000    C.ar   1  M0001
   58   C58        6.550094017     3.147811966    -0.059000000    C.ar   1  M0001
   59   H59        7.640094017     5.178811966    -1.422000000       H   1  M0001
   60   H60        6.508094017     7.302811966    -2.038000000       H   1  M0001
   61   C61        5.888094017     2.148811966     0.630000000    C.ar   1  M0001
   62   C62        4.549094017     2.394811966     1.072000000    C.ar   1  M0001
   63   H63        7.578094017     2.974811966    -0.384000000       H   1  M0001
   64   C64        2.506094017     3.878811966     1.259000000    C.ar   1  M0001
   65   C65        1.418094017     3.208811966     0.730000000    C.ar   1  M0001
   66   C66        2.303094017     4.906811966     2.240000000    C.ar   1  M0001
   67   C67        0.077094017     3.623811966     1.036000000    C.ar   1  M0001
   68   C68        0.974094017     5.290811966     2.575000000    C.ar   1  M0001
   69   C69        3.385094017     5.541811966     2.911000000    C.ar   1  M0001
   70   C70       -0.114905983     4.656811966     1.933000000    C.ar   1  M0001
   71   C71        0.762094017     6.313811966     3.541000000    C.ar   1  M0001
   72   C72        3.150094017     6.516811966     3.850000000    C.ar   1  M0001
   73   H73        4.409094017     5.239811966     2.687000000       H   1  M0001
   74   H74       -1.130905983     4.994811966     2.147000000       H   1  M0001
   75   C75        1.827094017     6.914811966     4.164000000    C.ar   1  M0001
   76   H76       -0.263905983     6.603811966     3.778000000       H   1  M0001
   77   H77        3.991094017     6.987811966     4.362000000       H   1  M0001
   78   H78        1.659094017     7.696811966     4.907000000       H   1  M0001
   79   S79        3.585094017     1.140811966     1.888000000    S.O2   1  M0001
   80   O80        2.995094017     1.748811966     3.042000000     O.2   1  M0001
   81   O81        4.370094017    -0.031188034     2.111000000     O.2   1  M0001
   82   S82        1.756094017     1.744811966    -0.247000000    S.O2   1  M0001
   83   O83        2.642094017     2.134811966    -1.296000000     O.2   1  M0001
   84   O84        0.527094017     1.115811966    -0.611000000     O.2   1  M0001
   85   N85        2.464094017     0.748811966     0.800000000     N.3   1  M0001
   86   Li      -1.127161148     3.049958200     0.350098145      Li   1  M0001
   87   Na       6.800662516     0.623680292     0.914942296      Na   1  M0001
@<TRIPOS>BOND
    1      1      2    ar
    2      1      6    ar
    3      1      8    1
    4      2      3    ar
    5      2     47    1
    6      2     48    1
    7      3      4    ar
    8      3     29    1
    9      4      5    ar
   10      4      7    1
   11      5      6    ar
   12      5     45    1
   13      8      9    ar
   14      8     16    ar
   15      9     10    ar
   16      9     17    1
   17     10     12    ar
   18     10     13    1
   19     11     12    ar
   20     11     15    1
   21     11     16    ar
   22     12     14    1
   23     16     28    1
   24     17     18    ar
   25     17     19    ar
   26     18     20    ar
   27     18     21    1
   28     19     22    ar
   29     19     23    1
   30     20     24    ar
   31     20     25    1
   32     22     24    ar
   33     22     26    1
   34     24     27    1
   35     29     30    1
   36     29     31    1
   37     29     32    1
   38     33     35    1
   39     33     36    1
   40     33     37    1
   41     33     45    1
   42     34     38    1
   43     34     39    1
   44     34     40    1
   45     34     45    1
   46     35     41    1
   47     35     42    1
   48     35     46    1
   49     38     43    1
   50     38     44    1
   51     38     46    1
   52     48     85    1
   53     49     50    ar
   54     49     54    ar
   55     49     55    1
   56     50     51    ar
   57     50     56    1
   58     51     52    ar
   59     51     57    ar
   60     52     53    ar
   61     52     58    ar
   62     53     54    ar
   63     53     59    1
   64     54     60    1
   65     57     62    ar
   66     57     64    1
   67     58     61    ar
   68     58     63    1
   69     61     62    ar
   70     62     79    1
   71     64     65    ar
   72     64     66    ar
   73     65     67    ar
   74     65     82    1
   75     66     68    ar
   76     66     69    ar
   77     67     70    ar
   78     68     70    ar
   79     68     71    ar
   80     69     72    ar
   81     69     73    1
   82     70     74    1
   83     71     75    ar
   84     71     76    1
   85     72     75    ar
   86     72     77    1
   87     75     78    1
   88     79     80    2
   89     79     81    2
   90     79     85    1
   91     82     83    2
   92     82     84    2
   93     82     85    1
   94     67     86    1
   95     61     87    1
