#
#	File Created by: Spartan '14 Export
#

@<TRIPOS>MOLECULE
M0001
77 84
SMALL
NO_CHARGES


@<TRIPOS>ATOM
    1   C1         2.453307432    -0.752068165     0.117509355    C.ar   1  M0001
    2   C2         1.070307432    -0.954068165    -0.300490645     C.3   1  M0001
    3   C3         0.256307432    -1.785068165     0.585509355    C.ar   1  M0001
    4   C4         0.746307432    -2.121068165     1.813509355    C.ar   1  M0001
    5   C5         2.103307432    -1.800068165     2.151509355    C.ar   1  M0001
    6   N6         2.900307432    -1.131068165     1.276509355    N.ar   1  M0001
    7   H7         0.102307432    -2.662068165     2.502509355       H   1  M0001
    8   C8         3.456307432    -0.055068165    -0.739490645    C.ar   1  M0001
    9   C9         4.756307432    -0.580068165    -0.925490645    C.ar   1  M0001
   10   C10        5.715307432     0.196931835    -1.586490645    C.ar   1  M0001
   11   C11        4.113307432     1.967931835    -1.947490645    C.ar   1  M0001
   12   C12        5.401307432     1.460931835    -2.083490645    C.ar   1  M0001
   13   H13        6.714307432    -0.214068165    -1.739490645       H   1  M0001
   14   H14        6.164307432     2.052931835    -2.593490645       H   1  M0001
   15   H15        3.825307432     2.950931835    -2.319490645       H   1  M0001
   16   C16        3.171307432     1.200931835    -1.280490645    C.ar   1  M0001
   17   F17        1.945307432     1.703931835    -1.127490645       F   1  M0001
   18   N18        2.668307432    -2.151068165     3.304509355   N.pl3   1  M0001
   19   I        0.771307432    -1.205068165    -2.392490645       I   1  M0001
   20   H20        0.450307432     0.143931835    -0.107490645       H   1  M0001
   21   C21       -1.929692568     7.555931835    -1.004490645    C.ar   1  M0001
   22   C22       -2.012692568     6.333931835    -0.379490645    C.ar   1  M0001
   23   C23       -0.834692568     5.647931835     0.029509355    C.ar   1  M0001
   24   C24        0.428307432     6.241931835    -0.247490645    C.ar   1  M0001
   25   C25        0.483307432     7.513931835    -0.884490645    C.ar   1  M0001
   26   C26       -0.670692568     8.157931835    -1.252490645    C.ar   1  M0001
   27   H27       -2.842692568     8.064931835    -1.317490645       H   1  M0001
   28   H28       -2.988692568     5.880931835    -0.207490645       H   1  M0001
   29   C29       -0.875692568     4.370931835     0.681509355    C.ar   1  M0001
   30   C30        1.612307432     5.550931835     0.096509355    C.ar   1  M0001
   31   H31        1.461307432     7.955931835    -1.081490645       H   1  M0001
   32   H32       -0.624692568     9.129931835    -1.745490645       H   1  M0001
   33   C33        1.576307432     4.293931835     0.672509355    C.ar   1  M0001
   34   C34        0.304307432     3.703931835     0.966509355    C.ar   1  M0001
   35   H35        2.580307432     6.009931835    -0.115490645       H   1  M0001
   36   C36       -2.215692568     3.777931835     1.012509355    C.ar   1  M0001
   37   C37       -2.674692568     2.619931835     0.410509355    C.ar   1  M0001
   38   C38       -3.000692568     4.405931835     2.037509355    C.ar   1  M0001
   39   C39       -3.914692568     2.017931835     0.802509355    C.ar   1  M0001
   40   C40       -4.266692568     3.847931835     2.376509355    C.ar   1  M0001
   41   C41       -2.555692568     5.552931835     2.753509355    C.ar   1  M0001
   42   C42       -4.693692568     2.654931835     1.748509355    C.ar   1  M0001
   43   C43       -5.067692568     4.469931835     3.375509355    C.ar   1  M0001
   44   C44       -3.345692568     6.127931835     3.720509355    C.ar   1  M0001
   45   H45       -1.574692568     5.976931835     2.539509355       H   1  M0001
   46   H46       -5.647692568     2.210931835     2.039509355       H   1  M0001
   47   C47       -4.619692568     5.589931835     4.029509355    C.ar   1  M0001
   48   H48       -6.037692568     4.029931835     3.613509355       H   1  M0001
   49   H49       -2.985692568     7.004931835     4.259509355       H   1  M0001
   50   H50       -5.235692568     6.061931835     4.796509355       H   1  M0001
   51   S51        0.163307432     2.020931835     1.553509355       S   1  M0001
   52   O52       -0.741692568     2.040931835     2.657509355       O   1  M0001
   53   O53        1.452307432     1.446931835     1.782509355       O   1  M0001
   54   S54       -1.556692568     1.807931835    -0.721490645       S   1  M0001
   55   O55       -1.038692568     2.809931835    -1.596490645       O   1  M0001
   56   O56       -2.179692568     0.679931835    -1.338490645       O   1  M0001
   57   N57       -0.444692568     1.230931835     0.288509355   N.pl3   1  M0001
   58   Li       2.896203879     3.637126221     0.949059087      Li   1  M0001
   59   Na      -4.491766926     0.435063389     0.168859080      Na   1  M0001
   60   C60        4.084656164    -1.918082196     3.510939288     C.3   1  M0001
   61   H61        4.689719713    -2.599710788     2.901039532       H   1  M0001
   62   H62        4.408240339    -0.885317033     3.338472115       H   1  M0001
   63   C63        2.018641213    -2.851679352     4.353220038     C.3   1  M0001
   64   H64        1.471564318    -3.741214427     4.023319185       H   1  M0001
   65   H65        1.327831947    -2.196066735     4.895000070       H   1  M0001
   66   C66        3.165287206    -3.273879967     5.263849007     C.3   1  M0001
   67   H67        3.518559205    -4.273969863     4.983103084       H   1  M0001
   68   H68        2.876374649    -3.296823532     6.318736155       H   1  M0001
   69   C69        4.257408523    -2.254225266     4.987525250     C.3   1  M0001
   70   H70        5.254872572    -2.641293629     5.215346344       H   1  M0001
   71   H71        4.087884667    -1.359414662     5.599387371       H   1  M0001
   72   Cl72      -1.455849179    -1.366845058     0.788933189      Cl   1  M0001
   73   O73        4.957688493    -1.817233001    -0.492425437     O.3   1  M0001
   74   C74        5.963826191    -2.504003875    -1.162116149     C.3   1  M0001
   75   H75        5.848081545    -2.430234130    -2.250485167       H   1  M0001
   76   H76        6.952019715    -2.133730840    -0.867418208       H   1  M0001
   77   H77        5.900682273    -3.560319652    -0.876764044       H   1  M0001
@<TRIPOS>BOND
    1      1      2    1
    2      1      6    1
    3      1      8    1
    4      2      3    1
    5      2     19    1
    6      2     20    1
    7      3      4    1
    8      4      5    1
    9      4      7    1
   10      5      6    1
   11      5     18    1
   12      8      9    1
   13      8     16    1
   14      9     10    1
   15     10     12    1
   16     10     13    1
   17     11     12    1
   18     11     15    1
   19     11     16    1
   20     12     14    1
   21     16     17    1
   22     21     22    1
   23     21     26    1
   24     21     27    1
   25     22     23    1
   26     22     28    1
   27     23     24    1
   28     23     29    1
   29     24     25    1
   30     24     30    1
   31     25     26    1
   32     25     31    1
   33     26     32    1
   34     29     34    1
   35     29     36    1
   36     30     33    1
   37     30     35    1
   38     33     34    1
   39     34     51    1
   40     36     37    1
   41     36     38    1
   42     37     39    1
   43     37     54    1
   44     38     40    1
   45     38     41    1
   46     39     42    1
   47     40     42    1
   48     40     43    1
   49     41     44    1
   50     41     45    1
   51     42     46    1
   52     43     47    1
   53     43     48    1
   54     44     47    1
   55     44     49    1
   56     47     50    1
   57     51     52    1
   58     51     53    1
   59     51     57    1
   60     54     55    1
   61     54     56    1
   62     54     57    1
   63     33     58    1
   64     39     59    1
   65     20     57    1
   66     60     61    1
   67     60     62    1
   68     18     60    1
   69     63     64    1
   70     63     65    1
   71     18     63    1
   72     66     67    1
   73     66     68    1
   74     63     66    1
   75     69     70    1
   76     69     71    1
   77     60     69    1
   78     69     66    1
   79      3     72    1
   80      9     73    1
   81     74     75    1
   82     74     76    1
   83     73     74    1
   84     74     77    1
