#
#	File Created by: Spartan '14 Export
#

@<TRIPOS>MOLECULE
M0001
81 88
SMALL
NO_CHARGES


@<TRIPOS>ATOM
    1   C1         2.969936130    -1.739295883    -0.104384336    C.ar   1  M0001
    2   C2         1.586936130    -1.941295883    -0.522384336     C.3   1  M0001
    3   C3         0.772936130    -2.772295883     0.363615664    C.ar   1  M0001
    4   C4         1.262936130    -3.108295883     1.591615664    C.ar   1  M0001
    5   C5         2.619936130    -2.787295883     1.929615664    C.ar   1  M0001
    6   N6         3.416936130    -2.118295883     1.054615664    N.ar   1  M0001
    7   H7         0.618936130    -3.649295883     2.280615664       H   1  M0001
    8   C8         3.972936130    -1.042295883    -0.961384336    C.ar   1  M0001
    9   C9         5.272936130    -1.567295883    -1.147384336    C.ar   1  M0001
   10   C10        6.231936130    -0.790295883    -1.808384336    C.ar   1  M0001
   11   C11        4.629936130     0.980704117    -2.169384336    C.ar   1  M0001
   12   C12        5.917936130     0.473704117    -2.305384336    C.ar   1  M0001
   13   H13        7.230936130    -1.201295883    -1.961384336       H   1  M0001
   14   H14        6.680936130     1.065704117    -2.815384336       H   1  M0001
   15   H15        4.341936130     1.963704117    -2.541384336       H   1  M0001
   16   C16        3.687936130     0.213704117    -1.502384336    C.ar   1  M0001
   17   F17        2.461936130     0.716704117    -1.349384336       F   1  M0001
   18   N18        3.184936130    -3.138295883     3.082615664   N.pl3   1  M0001
   19   I        1.287936130    -2.192295883    -2.614384336       I   1  M0001
   20   H20        0.966936130    -0.843295883    -0.329384336       H   1  M0001
   21   C21       -1.413063870     6.568704117    -1.226384336    C.ar   1  M0001
   22   C22       -1.496063870     5.346704117    -0.601384336    C.ar   1  M0001
   23   C23       -0.318063870     4.660704117    -0.192384336    C.ar   1  M0001
   24   C24        0.944936130     5.254704117    -0.469384336    C.ar   1  M0001
   25   C25        0.999936130     6.526704117    -1.106384336    C.ar   1  M0001
   26   C26       -0.154063870     7.170704117    -1.474384336    C.ar   1  M0001
   27   H27       -2.326063870     7.077704117    -1.539384336       H   1  M0001
   28   H28       -2.472063870     4.893704117    -0.429384336       H   1  M0001
   29   C29       -0.359063870     3.383704117     0.459615664    C.ar   1  M0001
   30   C30        2.128936130     4.563704117    -0.125384336    C.ar   1  M0001
   31   H31        1.977936130     6.968704117    -1.303384336       H   1  M0001
   32   H32       -0.108063870     8.142704117    -1.967384336       H   1  M0001
   33   C33        2.092936130     3.306704117     0.450615664    C.ar   1  M0001
   34   C34        0.820936130     2.716704117     0.744615664    C.ar   1  M0001
   35   H35        3.096936130     5.022704117    -0.337384336       H   1  M0001
   36   C36       -1.699063870     2.790704117     0.790615664    C.ar   1  M0001
   37   C37       -2.158063870     1.632704117     0.188615664    C.ar   1  M0001
   38   C38       -2.484063870     3.418704117     1.815615664    C.ar   1  M0001
   39   C39       -3.398063870     1.030704117     0.580615664    C.ar   1  M0001
   40   C40       -3.750063870     2.860704117     2.154615664    C.ar   1  M0001
   41   C41       -2.039063870     4.565704117     2.531615664    C.ar   1  M0001
   42   C42       -4.177063870     1.667704117     1.526615664    C.ar   1  M0001
   43   C43       -4.551063870     3.482704117     3.153615664    C.ar   1  M0001
   44   C44       -2.829063870     5.140704117     3.498615664    C.ar   1  M0001
   45   H45       -1.058063870     4.989704117     2.317615664       H   1  M0001
   46   H46       -5.131063870     1.223704117     1.817615664       H   1  M0001
   47   C47       -4.103063870     4.602704117     3.807615664    C.ar   1  M0001
   48   H48       -5.521063870     3.042704117     3.391615664       H   1  M0001
   49   H49       -2.469063870     6.017704117     4.037615664       H   1  M0001
   50   H50       -4.719063870     5.074704117     4.574615664       H   1  M0001
   51   S51        0.679936130     1.033704117     1.331615664       S   1  M0001
   52   O52       -0.225063870     1.053704117     2.435615664       O   1  M0001
   53   O53        1.968936130     0.459704117     1.560615664       O   1  M0001
   54   S54       -1.040063870     0.820704117    -0.943384336       S   1  M0001
   55   O55       -0.522063870     1.822704117    -1.818384336       O   1  M0001
   56   O56       -1.663063870    -0.307295883    -1.560384336       O   1  M0001
   57   N57        0.071936130     0.243704117     0.066615664   N.pl3   1  M0001
   58   Li       3.412832577     2.649898503     0.727165396      Li   1  M0001
   59   Na      -3.975138228    -0.552164329    -0.053034611      Na   1  M0001
   60   C60        2.374476570    -3.671603631     4.163939845     C.3   1  M0001
   61   H61        2.520177449    -3.064857719     5.066986625       H   1  M0001
   62   H62        1.291738928    -3.722571882     4.013440247       H   1  M0001
   63   C63        4.539563803    -2.958034397     3.452585902     C.3   1  M0001
   64   H64        4.622665145    -2.371132253     4.375488647       H   1  M0001
   65   H65        5.175241521    -2.463738520     2.715771489       H   1  M0001
   66   C66        5.059821128    -4.376112962     3.677595301     C.3   1  M0001
   67   H67        5.054522861    -4.948190822     2.740020098       H   1  M0001
   68   H68        6.104398981    -4.325951619     4.004234862       H   1  M0001
   69   C69        2.912416449    -5.082753572     4.395424804     C.3   1  M0001
   70   H70        2.415604469    -5.532519388     5.261348725       H   1  M0001
   71   H71        2.713847712    -5.730825654     3.532270307       H   1  M0001
   72   O72        4.364188875    -5.164927648     4.675253202     O.3   1  M0001
   73   O73        5.616609240    -2.870981486    -0.734597899     O.3   1  M0001
   74   C74        6.606396199    -3.293237268    -1.645708118     C.3   1  M0001
   75   H75        7.464395132    -2.613241173    -1.594141255       H   1  M0001
   76   H76        6.194923613    -3.285855792    -2.661509193       H   1  M0001
   77   H77        6.929235862    -4.308836857    -1.389684628       H   1  M0001
   78   C78       -0.660760265    -3.129951381    -0.037081469     C.3   1  M0001
   79   H79       -0.640370474    -3.859653677    -0.854598941       H   1  M0001
   80   H80       -1.184126846    -2.225502082    -0.367648992       H   1  M0001
   81   H81       -1.184126846    -3.560733564     0.824156090       H   1  M0001
@<TRIPOS>BOND
    1      1      2    1
    2      1      6    1
    3      1      8    1
    4      2      3    1
    5      2     19    1
    6      2     20    1
    7      3      4    1
    8      4      5    1
    9      4      7    1
   10      5      6    1
   11      5     18    1
   12      8      9    1
   13      8     16    1
   14      9     10    1
   15     10     12    1
   16     10     13    1
   17     11     12    1
   18     11     15    1
   19     11     16    1
   20     12     14    1
   21     16     17    1
   22     21     22    1
   23     21     26    1
   24     21     27    1
   25     22     23    1
   26     22     28    1
   27     23     24    1
   28     23     29    1
   29     24     25    1
   30     24     30    1
   31     25     26    1
   32     25     31    1
   33     26     32    1
   34     29     34    1
   35     29     36    1
   36     30     33    1
   37     30     35    1
   38     33     34    1
   39     34     51    1
   40     36     37    1
   41     36     38    1
   42     37     39    1
   43     37     54    1
   44     38     40    1
   45     38     41    1
   46     39     42    1
   47     40     42    1
   48     40     43    1
   49     41     44    1
   50     41     45    1
   51     42     46    1
   52     43     47    1
   53     43     48    1
   54     44     47    1
   55     44     49    1
   56     47     50    1
   57     51     52    1
   58     51     53    1
   59     51     57    1
   60     54     55    1
   61     54     56    1
   62     54     57    1
   63     33     58    1
   64     39     59    1
   65     20     57    1
   66     60     61    1
   67     60     62    1
   68     18     60    1
   69     63     64    1
   70     63     65    1
   71     18     63    1
   72     66     67    1
   73     66     68    1
   74     63     66    1
   75     69     70    1
   76     69     71    1
   77     60     69    1
   78     66     72    1
   79     69     72    1
   80      9     73    1
   81     74     75    1
   82     74     76    1
   83     74     77    1
   84     73     74    1
   85     78     79    1
   86     78     80    1
   87     78     81    1
   88      3     78    1
