#
#	File Created by: Spartan '14 Export
#

@<TRIPOS>MOLECULE
M0001
80 87
SMALL
NO_CHARGES


@<TRIPOS>ATOM
    1   C1         2.674067820    -1.440850765     0.070657238    C.ar   1  M0001
    2   C2         1.291067820    -1.642850765    -0.347342762     C.3   1  M0001
    3   C3         0.477067820    -2.473850765     0.538657238    C.ar   1  M0001
    4   C4         0.967067820    -2.809850765     1.766657238    C.ar   1  M0001
    5   C5         2.324067820    -2.488850765     2.104657238    C.ar   1  M0001
    6   N6         3.121067820    -1.819850765     1.229657238    N.ar   1  M0001
    7   H7         0.323067820    -3.350850765     2.455657238       H   1  M0001
    8   C8         3.677067820    -0.743850765    -0.786342762    C.ar   1  M0001
    9   C9         4.977067820    -1.268850765    -0.972342762    C.ar   1  M0001
   10   C10        5.936067820    -0.491850765    -1.633342762    C.ar   1  M0001
   11   C11        4.334067820     1.279149235    -1.994342762    C.ar   1  M0001
   12   C12        5.622067820     0.772149235    -2.130342762    C.ar   1  M0001
   13   H13        6.935067820    -0.902850765    -1.786342762       H   1  M0001
   14   H14        4.046067820     2.262149235    -2.366342762       H   1  M0001
   15   C15        3.392067820     0.512149235    -1.327342762    C.ar   1  M0001
   16   F16        2.166067820     1.015149235    -1.174342762       F   1  M0001
   17   N17        2.889067820    -2.839850765     3.257657238   N.pl3   1  M0001
   18   I        0.992067820    -1.893850765    -2.439342762       I   1  M0001
   19   H19        0.671067820    -0.544850765    -0.154342762       H   1  M0001
   20   C20       -1.708932180     6.867149235    -1.051342762    C.ar   1  M0001
   21   C21       -1.791932180     5.645149235    -0.426342762    C.ar   1  M0001
   22   C22       -0.613932180     4.959149235    -0.017342762    C.ar   1  M0001
   23   C23        0.649067820     5.553149235    -0.294342762    C.ar   1  M0001
   24   C24        0.704067820     6.825149235    -0.931342762    C.ar   1  M0001
   25   C25       -0.449932180     7.469149235    -1.299342762    C.ar   1  M0001
   26   H26       -2.621932180     7.376149235    -1.364342762       H   1  M0001
   27   H27       -2.767932180     5.192149235    -0.254342762       H   1  M0001
   28   C28       -0.654932180     3.682149235     0.634657238    C.ar   1  M0001
   29   C29        1.833067820     4.862149235     0.049657238    C.ar   1  M0001
   30   H30        1.682067820     7.267149235    -1.128342762       H   1  M0001
   31   H31       -0.403932180     8.441149235    -1.792342762       H   1  M0001
   32   C32        1.797067820     3.605149235     0.625657238    C.ar   1  M0001
   33   C33        0.525067820     3.015149235     0.919657238    C.ar   1  M0001
   34   H34        2.801067820     5.321149235    -0.162342762       H   1  M0001
   35   C35       -1.994932180     3.089149235     0.965657238    C.ar   1  M0001
   36   C36       -2.453932180     1.931149235     0.363657238    C.ar   1  M0001
   37   C37       -2.779932180     3.717149235     1.990657238    C.ar   1  M0001
   38   C38       -3.693932180     1.329149235     0.755657238    C.ar   1  M0001
   39   C39       -4.045932180     3.159149235     2.329657238    C.ar   1  M0001
   40   C40       -2.334932180     4.864149235     2.706657238    C.ar   1  M0001
   41   C41       -4.472932180     1.966149235     1.701657238    C.ar   1  M0001
   42   C42       -4.846932180     3.781149235     3.328657238    C.ar   1  M0001
   43   C43       -3.124932180     5.439149235     3.673657238    C.ar   1  M0001
   44   H44       -1.353932180     5.288149235     2.492657238       H   1  M0001
   45   H45       -5.426932180     1.522149235     1.992657238       H   1  M0001
   46   C46       -4.398932180     4.901149235     3.982657238    C.ar   1  M0001
   47   H47       -5.816932180     3.341149235     3.566657238       H   1  M0001
   48   H48       -2.764932180     6.316149235     4.212657238       H   1  M0001
   49   H49       -5.014932180     5.373149235     4.749657238       H   1  M0001
   50   S50        0.384067820     1.332149235     1.506657238       S   1  M0001
   51   O51       -0.520932180     1.352149235     2.610657238       O   1  M0001
   52   O52        1.673067820     0.758149235     1.735657238       O   1  M0001
   53   S53       -1.335932180     1.119149235    -0.768342762       S   1  M0001
   54   O54       -0.817932180     2.121149235    -1.643342762       O   1  M0001
   55   O55       -1.958932180    -0.008850765    -1.385342762       O   1  M0001
   56   N56       -0.223932180     0.542149235     0.241657238   N.pl3   1  M0001
   57   Li       3.116964267     2.948343621     0.902206970      Li   1  M0001
   58   Na      -4.271006538    -0.253719211     0.122006963      Na   1  M0001
   59   C59        4.305416552    -2.606864796     3.464087171     C.3   1  M0001
   60   H60        4.910480100    -3.288493388     2.854187414       H   1  M0001
   61   H61        4.629000727    -1.574099633     3.291619998       H   1  M0001
   62   C62        2.239401600    -3.540461952     4.306367921     C.3   1  M0001
   63   H63        1.692324705    -4.429997027     3.976467068       H   1  M0001
   64   H64        1.548592335    -2.884849335     4.848147953       H   1  M0001
   65   C65        3.386047594    -3.962662567     5.216996889     C.3   1  M0001
   66   H66        3.739319593    -4.962752463     4.936250967       H   1  M0001
   67   H67        3.097135036    -3.985606132     6.271884038       H   1  M0001
   68   C68        4.478168911    -2.943007866     4.940673133     C.3   1  M0001
   69   H69        5.475632959    -3.330076229     5.168494227       H   1  M0001
   70   H70        4.308645054    -2.048197262     5.552535254       H   1  M0001
   71   Cl71      -1.235088791    -2.055627658     0.742081071      Cl   1  M0001
   72   O72        5.178448881    -2.506015601    -0.539277555     O.3   1  M0001
   73   C73        6.184586579    -3.192786475    -1.208968266     C.3   1  M0001
   74   H74        6.068841933    -3.119016730    -2.297337284       H   1  M0001
   75   H75        7.172780103    -2.822513440    -0.914270325       H   1  M0001
   76   H76        6.121442661    -4.249102252    -0.923616161       H   1  M0001
   77   C77        6.691684362     1.602048309    -2.845289599     C.3   1  M0001
   78   H78        7.686233658     1.253137961    -2.544708049       H   1  M0001
   79   H79        6.577263775     2.657630589    -2.573499279       H   1  M0001
   80   H80        6.577263775     1.489478243    -3.929472199       H   1  M0001
@<TRIPOS>BOND
    1      1      2    1
    2      1      6    1
    3      1      8    1
    4      2      3    1
    5      2     18    1
    6      2     19    1
    7      3      4    1
    8      4      5    1
    9      4      7    1
   10      5      6    1
   11      5     17    1
   12      8      9    1
   13      8     15    1
   14      9     10    1
   15     10     12    1
   16     10     13    1
   17     11     12    1
   18     11     14    1
   19     11     15    1
   20     15     16    1
   21     20     21    1
   22     20     25    1
   23     20     26    1
   24     21     22    1
   25     21     27    1
   26     22     23    1
   27     22     28    1
   28     23     24    1
   29     23     29    1
   30     24     25    1
   31     24     30    1
   32     25     31    1
   33     28     33    1
   34     28     35    1
   35     29     32    1
   36     29     34    1
   37     32     33    1
   38     33     50    1
   39     35     36    1
   40     35     37    1
   41     36     38    1
   42     36     53    1
   43     37     39    1
   44     37     40    1
   45     38     41    1
   46     39     41    1
   47     39     42    1
   48     40     43    1
   49     40     44    1
   50     41     45    1
   51     42     46    1
   52     42     47    1
   53     43     46    1
   54     43     48    1
   55     46     49    1
   56     50     51    1
   57     50     52    1
   58     50     56    1
   59     53     54    1
   60     53     55    1
   61     53     56    1
   62     32     57    1
   63     38     58    1
   64     19     56    1
   65     59     60    1
   66     59     61    1
   67     17     59    1
   68     62     63    1
   69     62     64    1
   70     17     62    1
   71     65     66    1
   72     65     67    1
   73     62     65    1
   74     68     69    1
   75     68     70    1
   76     59     68    1
   77     68     65    1
   78      3     71    1
   79      9     72    1
   80     73     74    1
   81     73     75    1
   82     72     73    1
   83     73     76    1
   84     77     78    1
   85     77     79    1
   86     77     80    1
   87     12     77    1
