@<TRIPOS>MOLECULE
ClC#Cc1c([Si](C)(C(C)(C)C)C)cccc1
 35 35 0 0 0
SMALL
GASTEIGER

@<TRIPOS>ATOM
      1 CL          2.3289    0.0948   -4.5276 Cl      1  UNL1        0.0000
      2 C           2.2822   -0.1769   -2.7886 C.1     1  UNL1        0.0000
      3 C           2.2422   -0.3603   -1.6025 C.1     1  UNL1        0.0000
      4 C           2.2311   -0.6179   -0.1917 C.ar    1  UNL1        0.0000
      5 C           1.2472   -0.1164    0.6880 C.ar    1  UNL1        0.0000
      6 SI         -0.2282    1.0043    0.1629 Si      1  UNL1        0.0000
      7 C           0.1697    2.1975   -1.2248 C.3     1  UNL1        0.0000
      8 C          -1.7859   -0.2297   -0.4491 C.3     1  UNL1        0.0000
      9 C          -2.1820   -1.1628    0.7135 C.3     1  UNL1        0.0000
     10 C          -1.3356   -1.0694   -1.6608 C.3     1  UNL1        0.0000
     11 C          -2.9880    0.6534   -0.8454 C.3     1  UNL1        0.0000
     12 C          -0.8632    2.0034    1.6390 C.3     1  UNL1        0.0000
     13 C           1.3460   -0.4651    2.0553 C.ar    1  UNL1        0.0000
     14 C           2.3825   -1.2722    2.5299 C.ar    1  UNL1        0.0000
     15 C           3.3451   -1.7531    1.6533 C.ar    1  UNL1        0.0000
     16 C           3.2681   -1.4282    0.3009 C.ar    1  UNL1        0.0000
     17 H           0.2000    1.6985   -2.1958 H       1  UNL1        0.0000
     18 H          -0.5962    2.9772   -1.2839 H       1  UNL1        0.0000
     19 H           1.1329    2.6874   -1.0538 H       1  UNL1        0.0000
     20 H          -2.5095   -0.5977    1.5929 H       1  UNL1        0.0000
     21 H          -3.0090   -1.8188    0.4184 H       1  UNL1        0.0000
     22 H          -1.3480   -1.8038    1.0193 H       1  UNL1        0.0000
     23 H          -0.4986   -1.7281   -1.4066 H       1  UNL1        0.0000
     24 H          -2.1543   -1.7062   -2.0155 H       1  UNL1        0.0000
     25 H          -1.0256   -0.4368   -2.4994 H       1  UNL1        0.0000
     26 H          -2.7347    1.3338   -1.6660 H       1  UNL1        0.0000
     27 H          -3.8304    0.0356   -1.1771 H       1  UNL1        0.0000
     28 H          -3.3376    1.2610   -0.0034 H       1  UNL1        0.0000
     29 H          -1.6663    2.6759    1.3236 H       1  UNL1        0.0000
     30 H          -0.0561    2.6098    2.0609 H       1  UNL1        0.0000
     31 H          -1.2537    1.3500    2.4236 H       1  UNL1        0.0000
     32 H           0.6126   -0.1167    2.7809 H       1  UNL1        0.0000
     33 H           2.4337   -1.5242    3.5862 H       1  UNL1        0.0000
     34 H           4.1528   -2.3816    2.0184 H       1  UNL1        0.0000
     35 H           4.0279   -1.8166   -0.3752 H       1  UNL1        0.0000
@<TRIPOS>BOND
     1     1     2    1
     2     2     3    3
     3    25    10    1
     4    17     7    1
     5    24    10    1
     6    26    11    1
     7    10    23    1
     8    10     8    1
     9     3     4    1
    10    18     7    1
    11     7    19    1
    12     7     6    1
    13    27    11    1
    14    11     8    1
    15    11    28    1
    16     8     6    1
    17     8     9    1
    18    35    16    1
    19     4    16   ar
    20     4     5   ar
    21     6     5    1
    22     6    12    1
    23    16    15   ar
    24    21     9    1
    25     5    13   ar
    26     9    22    1
    27     9    20    1
    28    29    12    1
    29    12    30    1
    30    12    31    1
    31    15    34    1
    32    15    14   ar
    33    13    14   ar
    34    13    32    1
    35    14    33    1
