@<TRIPOS>MOLECULE
ClC#Cc1c([N+](=O)[O-])cccc1
 16 16 0 0 0
SMALL
GASTEIGER

@<TRIPOS>ATOM
      1 CL          4.8573    0.0474   -1.1464 Cl      1  UNL1       -0.0223
      2 C           3.1380   -0.0752   -0.7869 C.1     1  UNL1        0.0098
      3 C           1.9660   -0.1635   -0.5409 C.1     1  UNL1       -0.0470
      4 C           0.5673   -0.2768   -0.2481 C.ar    1  UNL1        0.0562
      5 C          -0.1974    0.7692    0.2827 C.ar    1  UNL1        0.1415
      6 N           0.3959    2.0699    0.5344 N.pl3   1  UNL1        0.0576
      7 O           0.2858    2.5236    1.6817 O.2     1  UNL1       -0.1261
      8 O           0.9371    2.6461   -0.4182 O.2     1  UNL1       -0.1261
      9 C          -1.5554    0.6043    0.5935 C.ar    1  UNL1       -0.0303
     10 C          -2.1633   -0.6274    0.3570 C.ar    1  UNL1       -0.0595
     11 C          -1.4191   -1.6786   -0.1803 C.ar    1  UNL1       -0.0605
     12 C          -0.0627   -1.5061   -0.4790 C.ar    1  UNL1       -0.0441
     13 H          -2.1368    1.4226    1.0137 H       1  UNL1        0.0641
     14 H          -3.2162   -0.7706    0.5911 H       1  UNL1        0.0618
     15 H          -1.8947   -2.6402   -0.3641 H       1  UNL1        0.0618
     16 H           0.4980   -2.3446   -0.8899 H       1  UNL1        0.0630
@<TRIPOS>BOND
     1     1     2    1
     2    16    12    1
     3     2     3    3
     4     3     4    1
     5    12     4   ar
     6    12    11   ar
     7     8     6    2
     8    15    11    1
     9     4     5   ar
    10    11    10   ar
    11     5     6    1
    12     5     9   ar
    13    10    14    1
    14    10     9   ar
    15     6     7    2
    16     9    13    1
