@<TRIPOS>MOLECULE
ClC#Cc1c(C)cccc1
 17 17 0 0 0
SMALL
GASTEIGER

@<TRIPOS>ATOM
      1 CL          4.4384    2.0141   -0.8373 Cl      1  UNL1       -0.0223
      2 C           2.7894    1.4607   -0.5615 C.1     1  UNL1        0.0097
      3 C           1.6658    1.0816   -0.3731 C.1     1  UNL1       -0.0491
      4 C           0.3242    0.6297   -0.1484 C.ar    1  UNL1        0.0290
      5 C           0.0404   -0.7203    0.1259 C.ar    1  UNL1       -0.0350
      6 C           1.1273   -1.7576    0.1977 C.3     1  UNL1       -0.0386
      7 C          -1.2940   -1.1028    0.3374 C.ar    1  UNL1       -0.0577
      8 C          -2.3241   -0.1627    0.2771 C.ar    1  UNL1       -0.0614
      9 C          -2.0352    1.1716    0.0051 C.ar    1  UNL1       -0.0606
     10 C          -0.7146    1.5671   -0.2072 C.ar    1  UNL1       -0.0460
     11 H           1.6534   -1.8254   -0.7601 H       1  UNL1        0.0278
     12 H           1.8399   -1.5088    0.9907 H       1  UNL1        0.0278
     13 H           0.7208   -2.7499    0.4204 H       1  UNL1        0.0278
     14 H          -1.5413   -2.1406    0.5514 H       1  UNL1        0.0621
     15 H          -3.3526   -0.4734    0.4430 H       1  UNL1        0.0618
     16 H          -2.8367    1.9041   -0.0419 H       1  UNL1        0.0618
     17 H          -0.5011    2.6126   -0.4190 H       1  UNL1        0.0630
@<TRIPOS>BOND
     1     1     2    1
     2    11     6    1
     3     2     3    3
     4    17    10    1
     5     3     4    1
     6    10     4   ar
     7    10     9   ar
     8     4     5   ar
     9    16     9    1
    10     9     8   ar
    11     5     6    1
    12     5     7   ar
    13     6    13    1
    14     6    12    1
    15     8     7   ar
    16     8    15    1
    17     7    14    1
