@<TRIPOS>MOLECULE
ClC#Cc1ccc(C(C)(C))cc1
 23 23 0 0 0
SMALL
GASTEIGER

@<TRIPOS>ATOM
      1 CL          6.7631   -0.3808   -0.2505 Cl      1  UNL1       -0.0223
      2 C           5.0081   -0.2331   -0.2750 C.1     1  UNL1        0.0097
      3 C           3.8119   -0.1324   -0.2918 C.1     1  UNL1       -0.0493
      4 C           2.3871   -0.0125   -0.3117 C.ar    1  UNL1        0.0261
      5 C           1.7865    1.1049   -0.8919 C.ar    1  UNL1       -0.0460
      6 C           0.3936    1.2217   -0.9112 C.ar    1  UNL1       -0.0572
      7 C          -0.4180    0.2236   -0.3509 C.ar    1  UNL1       -0.0447
      8 C          -1.9291    0.3732   -0.3841 C.3     1  UNL1       -0.0215
      9 C          -2.5875   -0.7460   -1.1945 C.3     1  UNL1       -0.0587
     10 C          -2.5184    0.4445    1.0268 C.3     1  UNL1       -0.0587
     11 C           0.1995   -0.8950    0.2294 C.ar    1  UNL1       -0.0572
     12 C           1.5924   -1.0124    0.2490 C.ar    1  UNL1       -0.0460
     13 H           2.3937    1.8919   -1.3326 H       1  UNL1        0.0630
     14 H          -0.0529    2.1020   -1.3691 H       1  UNL1        0.0621
     15 H          -2.1750    1.3197   -0.8838 H       1  UNL1        0.0343
     16 H          -3.6664   -0.5764   -1.2789 H       1  UNL1        0.0235
     17 H          -2.4409   -1.7281   -0.7318 H       1  UNL1        0.0235
     18 H          -2.1748   -0.7899   -2.2086 H       1  UNL1        0.0235
     19 H          -3.5960    0.6367    0.9844 H       1  UNL1        0.0235
     20 H          -2.3690   -0.4884    1.5812 H       1  UNL1        0.0235
     21 H          -2.0561    1.2533    1.6037 H       1  UNL1        0.0235
     22 H          -0.3989   -1.6877    0.6729 H       1  UNL1        0.0621
     23 H           2.0471   -1.8889    0.7046 H       1  UNL1        0.0630
@<TRIPOS>BOND
     1    18     9    1
     2    14     6    1
     3    13     5    1
     4    16     9    1
     5     9    17    1
     6     9     8    1
     7     6     5   ar
     8     6     7   ar
     9     5     4   ar
    10    15     8    1
    11     8     7    1
    12     8    10    1
    13     7    11   ar
    14     4     3    1
    15     4    12   ar
    16     3     2    3
    17     2     1    1
    18    11    12   ar
    19    11    22    1
    20    12    23    1
    21    19    10    1
    22    10    20    1
    23    10    21    1
