@<TRIPOS>MOLECULE
ClC#Cc1ccc([Si](C)(C)C)cc1
 26 26 0 0 0
SMALL
GASTEIGER

@<TRIPOS>ATOM
      1 CL          4.5628   -1.2642   -5.5563 Cl      1  UNL1        0.0000
      2 C           3.4587   -0.9592   -4.2182 C.1     1  UNL1        0.0000
      3 C           2.7062   -0.7514   -3.3061 C.1     1  UNL1        0.0000
      4 C           1.8098   -0.5038   -2.2198 C.ar    1  UNL1        0.0000
      5 C           2.1401    0.4311   -1.2390 C.ar    1  UNL1        0.0000
      6 C           1.2643    0.6739   -0.1764 C.ar    1  UNL1        0.0000
      7 C           0.0434   -0.0176   -0.0812 C.ar    1  UNL1        0.0000
      8 SI         -1.1397    0.3294    1.3799 Si      1  UNL1        0.0000
      9 C          -1.6207    2.1452    1.3483 C.3     1  UNL1        0.0000
     10 C          -0.2449   -0.0584    2.9856 C.3     1  UNL1        0.0000
     11 C          -2.6863   -0.7249    1.2605 C.3     1  UNL1        0.0000
     12 C          -0.2769   -0.9566   -1.0757 C.ar    1  UNL1        0.0000
     13 C           0.6018   -1.1966   -2.1371 C.ar    1  UNL1        0.0000
     14 H           3.0786    0.9780   -1.2917 H       1  UNL1        0.0000
     15 H           1.5520    1.4101    0.5727 H       1  UNL1        0.0000
     16 H          -2.1216    2.3957    0.4084 H       1  UNL1        0.0000
     17 H          -2.3032    2.3752    2.1718 H       1  UNL1        0.0000
     18 H          -0.7380    2.7838    1.4482 H       1  UNL1        0.0000
     19 H           0.0654   -1.1073    3.0112 H       1  UNL1        0.0000
     20 H          -0.8990    0.1260    3.8430 H       1  UNL1        0.0000
     21 H           0.6463    0.5665    3.0957 H       1  UNL1        0.0000
     22 H          -3.3556   -0.5181    2.1011 H       1  UNL1        0.0000
     23 H          -3.2309   -0.5161    0.3348 H       1  UNL1        0.0000
     24 H          -2.4358   -1.7897    1.2811 H       1  UNL1        0.0000
     25 H          -1.2097   -1.5163   -1.0453 H       1  UNL1        0.0000
     26 H           0.3330   -1.9281   -2.8957 H       1  UNL1        0.0000
@<TRIPOS>BOND
     1     1     2    1
     2     2     3    3
     3     3     4    1
     4    26    13    1
     5     4    13   ar
     6     4     5   ar
     7    13    12   ar
     8    14     5    1
     9     5     6   ar
    10    12    25    1
    11    12     7   ar
    12     6     7   ar
    13     6    15    1
    14     7     8    1
    15    23    11    1
    16    16     9    1
    17    11    24    1
    18    11     8    1
    19    11    22    1
    20     9     8    1
    21     9    18    1
    22     9    17    1
    23     8    10    1
    24    10    19    1
    25    10    21    1
    26    10    20    1
