@<TRIPOS>MOLECULE
ClC#Cc1cc([Si](C)(C)C)ccc1
 26 26 0 0 0
SMALL
GASTEIGER

@<TRIPOS>ATOM
      1 CL          6.1499    2.3330   -0.0438 Cl      1  UNL1        0.0000
      2 C           4.7095    1.3199   -0.0755 C.1     1  UNL1        0.0000
      3 C           3.7274    0.6296   -0.0971 C.1     1  UNL1        0.0000
      4 C           2.5568   -0.1920   -0.1227 C.ar    1  UNL1        0.0000
      5 C           1.2899    0.3919   -0.0064 C.ar    1  UNL1        0.0000
      6 C           0.1296   -0.4032   -0.0299 C.ar    1  UNL1        0.0000
      7 SI         -1.6104    0.3694    0.1271 Si      1  UNL1        0.0000
      8 C          -2.4573   -0.3534    1.6403 C.3     1  UNL1        0.0000
      9 C          -1.5083    2.2338    0.3046 C.3     1  UNL1        0.0000
     10 C          -2.6001   -0.0549   -1.4124 C.3     1  UNL1        0.0000
     11 C           0.2713   -1.7951   -0.1726 C.ar    1  UNL1        0.0000
     12 C           1.5370   -2.3742   -0.2884 C.ar    1  UNL1        0.0000
     13 C           2.6787   -1.5746   -0.2636 C.ar    1  UNL1        0.0000
     14 H           1.2206    1.4728    0.1026 H       1  UNL1        0.0000
     15 H          -3.4573    0.0740    1.7605 H       1  UNL1        0.0000
     16 H          -2.5590   -1.4388    1.5485 H       1  UNL1        0.0000
     17 H          -1.8817   -0.1372    2.5452 H       1  UNL1        0.0000
     18 H          -0.9401    2.5107    1.1977 H       1  UNL1        0.0000
     19 H          -1.0226    2.6832   -0.5668 H       1  UNL1        0.0000
     20 H          -2.5101    2.6647    0.3936 H       1  UNL1        0.0000
     21 H          -2.1086    0.3373   -2.3077 H       1  UNL1        0.0000
     22 H          -3.6030    0.3786   -1.3548 H       1  UNL1        0.0000
     23 H          -2.7027   -1.1385   -1.5231 H       1  UNL1        0.0000
     24 H          -0.6001   -2.4480   -0.1957 H       1  UNL1        0.0000
     25 H           1.6320   -3.4516   -0.3982 H       1  UNL1        0.0000
     26 H           3.6583   -2.0372   -0.3547 H       1  UNL1        0.0000
@<TRIPOS>BOND
     1    21    10    1
     2    23    10    1
     3    10    22    1
     4    10     7    1
     5    19     9    1
     6    25    12    1
     7    26    13    1
     8    12    13   ar
     9    12    11   ar
    10    13     4   ar
    11    24    11    1
    12    11     6   ar
    13     4     3    1
    14     4     5   ar
    15     3     2    3
    16     2     1    1
    17     6     5   ar
    18     6     7    1
    19     5    14    1
    20     7     9    1
    21     7     8    1
    22     9    20    1
    23     9    18    1
    24    16     8    1
    25     8    15    1
    26     8    17    1
