@<TRIPOS>MOLECULE
ClC#Cc1cc(c2ccccc2)ccc1
 24 25 0 0 0
SMALL
GASTEIGER

@<TRIPOS>ATOM
      1 CL         -5.7723    3.1602   -0.0246 Cl      1  UNL1       -0.0223
      2 C          -4.5017    1.9405   -0.0279 C.1     1  UNL1        0.0097
      3 C          -3.6357    1.1090   -0.0297 C.1     1  UNL1       -0.0493
      4 C          -2.6037    0.1187   -0.0317 C.ar    1  UNL1        0.0267
      5 C          -1.2603    0.5083   -0.0618 C.ar    1  UNL1       -0.0386
      6 C          -0.2294   -0.4475   -0.0669 C.ar    1  UNL1       -0.0167
      7 C           1.1841   -0.0368   -0.0987 C.ar    1  UNL1       -0.0178
      8 C           2.0591   -0.5291   -1.0815 C.ar    1  UNL1       -0.0540
      9 C           3.4008   -0.1389   -1.1131 C.ar    1  UNL1       -0.0612
     10 C           3.8908    0.7504   -0.1603 C.ar    1  UNL1       -0.0617
     11 C           3.0409    1.2500    0.8230 C.ar    1  UNL1       -0.0612
     12 C           1.6993    0.8597    0.8526 C.ar    1  UNL1       -0.0540
     13 C          -0.5874   -1.8059   -0.0408 C.ar    1  UNL1       -0.0540
     14 C          -1.9280   -2.1982   -0.0098 C.ar    1  UNL1       -0.0600
     15 C          -2.9361   -1.2359   -0.0054 C.ar    1  UNL1       -0.0463
     16 H          -1.0105    1.5676   -0.0938 H       1  UNL1        0.0636
     17 H           1.6946   -1.2160   -1.8428 H       1  UNL1        0.0624
     18 H           4.0605   -0.5283   -1.8841 H       1  UNL1        0.0618
     19 H           4.9341    1.0541   -0.1842 H       1  UNL1        0.0618
     20 H           3.4206    1.9421    1.5701 H       1  UNL1        0.0618
     21 H           1.0558    1.2539    1.6367 H       1  UNL1        0.0624
     22 H           0.1849   -2.5731   -0.0319 H       1  UNL1        0.0624
     23 H          -2.1836   -3.2545    0.0138 H       1  UNL1        0.0618
     24 H          -3.9768   -1.5502    0.0188 H       1  UNL1        0.0630
@<TRIPOS>BOND
     1    18     9    1
     2    17     8    1
     3     9     8   ar
     4     9    10   ar
     5     8     7   ar
     6    19    10    1
     7    10    11   ar
     8     7     6    1
     9     7    12   ar
    10    16     5    1
    11     6     5   ar
    12     6    13   ar
    13     5     4   ar
    14    13    22    1
    15    13    14   ar
    16     4     3    1
    17     4    15   ar
    18     3     2    3
    19     2     1    1
    20    14    15   ar
    21    14    23    1
    22    15    24    1
    23    11    12   ar
    24    11    20    1
    25    12    21    1
