@<TRIPOS>MOLECULE
ClC#Cc1c(C(C)(C))cccc1
 23 23 0 0 0
SMALL
GASTEIGER

@<TRIPOS>ATOM
      1 CL          3.8471    3.2332    0.8965 Cl      1  UNL1       -0.0223
      2 C           2.8530    1.8157    0.5742 C.1     1  UNL1        0.0097
      3 C           2.1729    0.8508    0.3544 C.1     1  UNL1       -0.0490
      4 C           1.3710   -0.3087    0.0923 C.ar    1  UNL1        0.0295
      5 C          -0.0250   -0.2343   -0.0912 C.ar    1  UNL1       -0.0294
      6 C          -0.7888    1.0837   -0.0253 C.3     1  UNL1       -0.0204
      7 C          -1.4657    1.4088   -1.3607 C.3     1  UNL1       -0.0586
      8 C          -1.8088    1.0859    1.1178 C.3     1  UNL1       -0.0586
      9 C          -0.7244   -1.4319   -0.3441 C.ar    1  UNL1       -0.0572
     10 C          -0.0621   -2.6591   -0.4122 C.ar    1  UNL1       -0.0614
     11 C           1.3144   -2.7169   -0.2292 C.ar    1  UNL1       -0.0606
     12 C           2.0278   -1.5462    0.0220 C.ar    1  UNL1       -0.0460
     13 H          -0.0960    1.9071    0.1779 H       1  UNL1        0.0344
     14 H          -1.9362    2.3973   -1.3218 H       1  UNL1        0.0235
     15 H          -0.7350    1.4175   -2.1771 H       1  UNL1        0.0235
     16 H          -2.2443    0.6821   -1.6161 H       1  UNL1        0.0235
     17 H          -2.6017    0.3460    0.9645 H       1  UNL1        0.0235
     18 H          -1.3237    0.8635    2.0748 H       1  UNL1        0.0235
     19 H          -2.2860    2.0682    1.2045 H       1  UNL1        0.0235
     20 H          -1.8025   -1.4188   -0.4916 H       1  UNL1        0.0621
     21 H          -0.6240   -3.5687   -0.6085 H       1  UNL1        0.0618
     22 H           1.8329   -3.6705   -0.2817 H       1  UNL1        0.0618
     23 H           3.1052   -1.6047    0.1635 H       1  UNL1        0.0630
@<TRIPOS>BOND
     1    15     7    1
     2    16     7    1
     3     7    14    1
     4     7     6    1
     5    21    10    1
     6    20     9    1
     7    10     9   ar
     8    10    11   ar
     9     9     5   ar
    10    22    11    1
    11    11    12   ar
    12     5     6    1
    13     5     4   ar
    14     6    13    1
    15     6     8    1
    16    12     4   ar
    17    12    23    1
    18     4     3    1
    19     3     2    3
    20     2     1    1
    21    17     8    1
    22     8    19    1
    23     8    18    1
