@<TRIPOS>MOLECULE
ClC#Cc1ccc(OC(c2ccccc2))cc1
 28 29 0 0 0
SMALL
GASTEIGER

@<TRIPOS>ATOM
      1 CL          8.2216    1.1391   -1.3334 Cl      1  UNL1       -0.0223
      2 C           6.4861    0.9683   -1.0863 C.1     1  UNL1        0.0097
      3 C           5.3032    0.8514   -0.9174 C.1     1  UNL1       -0.0493
      4 C           3.8945    0.7119   -0.7161 C.ar    1  UNL1        0.0263
      5 C           3.4039   -0.2621    0.1558 C.ar    1  UNL1       -0.0428
      6 C           2.0251   -0.4023    0.3560 C.ar    1  UNL1       -0.0188
      7 C           1.1314    0.4325   -0.3162 C.ar    1  UNL1        0.1211
      8 O          -0.2312    0.4050   -0.2146 O.3     1  UNL1       -0.4874
      9 C          -0.7998   -0.5664    0.6595 C.3     1  UNL1        0.1146
     10 C          -2.3003   -0.4167    0.6154 C.ar    1  UNL1       -0.0104
     11 C          -3.0584   -1.1216   -0.3302 C.ar    1  UNL1       -0.0554
     12 C          -4.4455   -0.9724   -0.3788 C.ar    1  UNL1       -0.0614
     13 C          -5.0865   -0.1113    0.5099 C.ar    1  UNL1       -0.0617
     14 C          -4.3415    0.6063    1.4439 C.ar    1  UNL1       -0.0614
     15 C          -2.9543    0.4585    1.4942 C.ar    1  UNL1       -0.0554
     16 C           1.6289    1.4055   -1.1876 C.ar    1  UNL1       -0.0188
     17 C           3.0042    1.5476   -1.3893 C.ar    1  UNL1       -0.0428
     18 H           4.0887   -0.9200    0.6867 H       1  UNL1        0.0631
     19 H           1.6881   -1.1720    1.0421 H       1  UNL1        0.0654
     20 H          -0.5274   -1.5807    0.3410 H       1  UNL1        0.0748
     21 H          -0.4505   -0.4132    1.6885 H       1  UNL1        0.0748
     22 H          -2.5699   -1.7864   -1.0391 H       1  UNL1        0.0621
     23 H          -5.0251   -1.5234   -1.1148 H       1  UNL1        0.0618
     24 H          -6.1660    0.0071    0.4690 H       1  UNL1        0.0618
     25 H          -4.8400    1.2864    2.1295 H       1  UNL1        0.0618
     26 H          -2.3840    1.0353    2.2190 H       1  UNL1        0.0621
     27 H           0.9372    2.0592   -1.7145 H       1  UNL1        0.0654
     28 H           3.3673    2.3118   -2.0722 H       1  UNL1        0.0631
@<TRIPOS>BOND
     1    28    17    1
     2    27    16    1
     3    17    16   ar
     4    17     4   ar
     5     1     2    1
     6    16     7   ar
     7    23    12    1
     8     2     3    3
     9    22    11    1
    10     3     4    1
    11     4     5   ar
    12    12    11   ar
    13    12    13   ar
    14    11    10   ar
    15     7     8    1
    16     7     6   ar
    17     8     9    1
    18     5     6   ar
    19     5    18    1
    20    20     9    1
    21     6    19    1
    22    24    13    1
    23    13    14   ar
    24    10     9    1
    25    10    15   ar
    26     9    21    1
    27    14    15   ar
    28    14    25    1
    29    15    26    1
