@<TRIPOS>MOLECULE
ClC#Cc1c([Si](C)(C)C)cccc1
 26 26 0 0 0
SMALL
GASTEIGER

@<TRIPOS>ATOM
      1 CL         -0.4822    4.8397    0.8068 Cl      1  UNL1        0.0000
      2 C           0.2669    3.2717    0.5235 C.1     1  UNL1        0.0000
      3 C           0.7698    2.1985    0.3300 C.1     1  UNL1        0.0000
      4 C           1.3953    0.9278    0.0998 C.ar    1  UNL1        0.0000
      5 C           0.6697   -0.2729   -0.0692 C.ar    1  UNL1        0.0000
      6 SI         -1.2579   -0.3704   -0.0140 Si      1  UNL1        0.0000
      7 C          -1.8413   -2.1439   -0.2816 C.3     1  UNL1        0.0000
      8 C          -1.8710    0.2000    1.6668 C.3     1  UNL1        0.0000
      9 C          -1.9834    0.6964   -1.3785 C.3     1  UNL1        0.0000
     10 C           1.3976   -1.4630   -0.2901 C.ar    1  UNL1        0.0000
     11 C           2.7937   -1.4597   -0.3411 C.ar    1  UNL1        0.0000
     12 C           3.4943   -0.2720   -0.1733 C.ar    1  UNL1        0.0000
     13 C           2.7982    0.9149    0.0459 C.ar    1  UNL1        0.0000
     14 H          -1.5136   -2.5181   -1.2559 H       1  UNL1        0.0000
     15 H          -2.9341   -2.1906   -0.2488 H       1  UNL1        0.0000
     16 H          -1.4489   -2.8039    0.4976 H       1  UNL1        0.0000
     17 H          -2.9547    0.0681    1.7408 H       1  UNL1        0.0000
     18 H          -1.6491    1.2564    1.8375 H       1  UNL1        0.0000
     19 H          -1.4023   -0.3826    2.4656 H       1  UNL1        0.0000
     20 H          -1.7620    1.7550   -1.2207 H       1  UNL1        0.0000
     21 H          -1.5801    0.4029   -2.3522 H       1  UNL1        0.0000
     22 H          -3.0711    0.5821   -1.4124 H       1  UNL1        0.0000
     23 H           0.8936   -2.4178   -0.4272 H       1  UNL1        0.0000
     24 H           3.3319   -2.3887   -0.5124 H       1  UNL1        0.0000
     25 H           4.5802   -0.2678   -0.2127 H       1  UNL1        0.0000
     26 H           3.3605    1.8377    0.1756 H       1  UNL1        0.0000
@<TRIPOS>BOND
     1    21     9    1
     2    22     9    1
     3     9    20    1
     4     9     6    1
     5    14     7    1
     6    24    11    1
     7    23    10    1
     8    11    10   ar
     9    11    12   ar
    10    10     5   ar
    11     7    15    1
    12     7     6    1
    13     7    16    1
    14    25    12    1
    15    12    13   ar
    16     5     6    1
    17     5     4   ar
    18     6     8    1
    19    13     4   ar
    20    13    26    1
    21     4     3    1
    22     3     2    3
    23     2     1    1
    24     8    17    1
    25     8    18    1
    26     8    19    1
