@<TRIPOS>MOLECULE
ClC#Cc1cc(OC(C)C)ccc1
 24 24 0 0 0
SMALL
GASTEIGER

@<TRIPOS>ATOM
      1 CL          5.2666    1.7608    2.5202 Cl      1  UNL1       -0.0223
      2 C           4.0419    0.8311    1.6612 C.1     1  UNL1        0.0097
      3 C           3.2065    0.1981    1.0757 C.1     1  UNL1       -0.0492
      4 C           2.2102   -0.5555    0.3781 C.ar    1  UNL1        0.0296
      5 C           0.9330   -0.0137    0.1850 C.ar    1  UNL1       -0.0045
      6 C          -0.0421   -0.7445   -0.4945 C.ar    1  UNL1        0.1220
      7 O          -1.3245   -0.3482   -0.7504 O.3     1  UNL1       -0.4893
      8 C          -1.7165    0.9961   -0.4543 C.3     1  UNL1        0.0946
      9 C          -2.8302    1.3539   -1.4363 C.3     1  UNL1       -0.0281
     10 C          -2.2375    1.0819    0.9773 C.3     1  UNL1       -0.0281
     11 C           0.2701   -2.0225   -0.9684 C.ar    1  UNL1       -0.0199
     12 C           1.5416   -2.5651   -0.7783 C.ar    1  UNL1       -0.0571
     13 C           2.5143   -1.8297   -0.1048 C.ar    1  UNL1       -0.0461
     14 H           0.7256    0.9734    0.5836 H       1  UNL1        0.0666
     15 H          -0.8980    1.7053   -0.6213 H       1  UNL1        0.0727
     16 H          -3.1933    2.3731   -1.2725 H       1  UNL1        0.0265
     17 H          -3.6740    0.6606   -1.3460 H       1  UNL1        0.0265
     18 H          -2.4677    1.2746   -2.4671 H       1  UNL1        0.0265
     19 H          -1.4589    0.8188    1.6998 H       1  UNL1        0.0265
     20 H          -3.0603    0.3759    1.1365 H       1  UNL1        0.0265
     21 H          -2.5929    2.0909    1.2085 H       1  UNL1        0.0265
     22 H          -0.4874   -2.6000   -1.4937 H       1  UNL1        0.0654
     23 H           1.7699   -3.5588   -1.1546 H       1  UNL1        0.0619
     24 H           3.5036   -2.2567    0.0417 H       1  UNL1        0.0630
@<TRIPOS>BOND
     1    18     9    1
     2    22    11    1
     3     9    17    1
     4     9    16    1
     5     9     8    1
     6    23    12    1
     7    11    12   ar
     8    11     6   ar
     9    12    13   ar
    10     7     6    1
    11     7     8    1
    12    15     8    1
    13     6     5   ar
    14     8    10    1
    15    13    24    1
    16    13     4   ar
    17     5     4   ar
    18     5    14    1
    19     4     3    1
    20    10    20    1
    21    10    21    1
    22    10    19    1
    23     3     2    3
    24     2     1    1
