@<TRIPOS>MOLECULE
ClC#Cc1ccc(F)cc1
 14 14 0 0 0
SMALL
GASTEIGER

@<TRIPOS>ATOM
      1 CL          4.7690    0.2640   -1.7382 Cl      1  UNL1       -0.0223
      2 C           3.1165    0.1725   -1.1359 C.1     1  UNL1        0.0097
      3 C           1.9900    0.1102   -0.7253 C.1     1  UNL1       -0.0493
      4 C           0.6483    0.0359   -0.2363 C.ar    1  UNL1        0.0263
      5 C           0.3730   -0.6546    0.9490 C.ar    1  UNL1       -0.0436
      6 C          -0.9376   -0.7265    1.4256 C.ar    1  UNL1       -0.0253
      7 C          -1.9606   -0.1085    0.7146 C.ar    1  UNL1        0.1235
      8 F          -3.2171   -0.1781    1.1726 F       1  UNL1       -0.2055
      9 C          -1.6989    0.5805   -0.4646 C.ar    1  UNL1       -0.0253
     10 C          -0.3891    0.6537   -0.9432 C.ar    1  UNL1       -0.0436
     11 H           1.1723   -1.1383    1.5060 H       1  UNL1        0.0631
     12 H          -1.1663   -1.2586    2.3435 H       1  UNL1        0.0646
     13 H          -2.5138    1.0549   -1.0021 H       1  UNL1        0.0646
     14 H          -0.1857    1.1930   -1.8656 H       1  UNL1        0.0631
@<TRIPOS>BOND
     1    14    10    1
     2     1     2    1
     3     2     3    3
     4    13     9    1
     5    10     9   ar
     6    10     4   ar
     7     3     4    1
     8     9     7   ar
     9     4     5   ar
    10     7     8    1
    11     7     6   ar
    12     5     6   ar
    13     5    11    1
    14     6    12    1
