@<TRIPOS>MOLECULE
ClC#Cc1cc(OC(c2ccccc2))ccc1
 28 29 0 0 0
SMALL
GASTEIGER

@<TRIPOS>ATOM
      1 CL          6.3352    3.4183    1.1117 Cl      1  UNL1       -0.0223
      2 C           5.1659    2.3263    0.3755 C.1     1  UNL1        0.0097
      3 C           4.3679    1.5822   -0.1256 C.1     1  UNL1       -0.0492
      4 C           3.4165    0.6958   -0.7224 C.ar    1  UNL1        0.0296
      5 C           2.0992    0.6631   -0.2479 C.ar    1  UNL1       -0.0045
      6 C           1.1688   -0.2010   -0.8284 C.ar    1  UNL1        0.1221
      7 O          -0.1430   -0.3357   -0.4671 O.3     1  UNL1       -0.4873
      8 C          -0.6125    0.4793    0.6037 C.3     1  UNL1        0.1146
      9 C          -2.0708    0.1651    0.8280 C.ar    1  UNL1       -0.0104
     10 C          -3.0656    0.8701    0.1359 C.ar    1  UNL1       -0.0554
     11 C          -4.4143    0.5696    0.3345 C.ar    1  UNL1       -0.0614
     12 C          -4.7809   -0.4435    1.2186 C.ar    1  UNL1       -0.0617
     13 C          -3.8000   -1.1612    1.9004 C.ar    1  UNL1       -0.0614
     14 C          -2.4508   -0.8623    1.7033 C.ar    1  UNL1       -0.0554
     15 C           1.5668   -1.0279   -1.8829 C.ar    1  UNL1       -0.0198
     16 C           2.8786   -0.9971   -2.3573 C.ar    1  UNL1       -0.0571
     17 C           3.8053   -0.1338   -1.7762 C.ar    1  UNL1       -0.0461
     18 H           1.8276    1.3197    0.5722 H       1  UNL1        0.0666
     19 H          -0.0515    0.2711    1.5236 H       1  UNL1        0.0748
     20 H          -0.5045    1.5430    0.3566 H       1  UNL1        0.0748
     21 H          -2.7936    1.6540   -0.5675 H       1  UNL1        0.0621
     22 H          -5.1786    1.1220   -0.2057 H       1  UNL1        0.0618
     23 H          -5.8309   -0.6792    1.3700 H       1  UNL1        0.0618
     24 H          -4.0852   -1.9587    2.5816 H       1  UNL1        0.0618
     25 H          -1.6954   -1.4397    2.2316 H       1  UNL1        0.0621
     26 H           0.8450   -1.7026   -2.3382 H       1  UNL1        0.0654
     27 H           3.1746   -1.6455   -3.1779 H       1  UNL1        0.0619
     28 H           4.8264   -0.1139   -2.1498 H       1  UNL1        0.0630
@<TRIPOS>BOND
     1    27    16    1
     2    16    15   ar
     3    16    17   ar
     4    26    15    1
     5    28    17    1
     6    15     6   ar
     7    17     4   ar
     8     6     7    1
     9     6     5   ar
    10     4     5   ar
    11     4     3    1
    12    21    10    1
    13     7     8    1
    14     5    18    1
    15    22    11    1
    16     3     2    3
    17    10    11   ar
    18    10     9   ar
    19    11    12   ar
    20    20     8    1
    21     2     1    1
    22     8     9    1
    23     8    19    1
    24     9    14   ar
    25    12    23    1
    26    12    13   ar
    27    14    13   ar
    28    14    25    1
    29    13    24    1
