@<TRIPOS>MOLECULE
ClC#Cc1cc(OC(C)(C)C)ccc1
 27 27 0 0 0
SMALL
GASTEIGER

@<TRIPOS>ATOM
      1 CL          5.6836    1.5546   -2.9783 Cl      1  UNL1       -0.0223
      2 C           4.4455    0.8223   -1.9620 C.1     1  UNL1        0.0097
      3 C           3.6013    0.3227   -1.2698 C.1     1  UNL1       -0.0492
      4 C           2.5949   -0.2722   -0.4461 C.ar    1  UNL1        0.0296
      5 C           1.4615    0.4610   -0.0881 C.ar    1  UNL1       -0.0045
      6 C           0.4740   -0.1311    0.6978 C.ar    1  UNL1        0.1224
      7 O          -0.6022    0.6063    1.1009 O.3     1  UNL1       -0.4865
      8 C          -1.7803    0.5523    0.2629 C.3     1  UNL1        0.1023
      9 C          -2.3829   -0.8578    0.1813 C.3     1  UNL1       -0.0255
     10 C          -1.5314    1.1179   -1.1430 C.3     1  UNL1       -0.0255
     11 C          -2.7941    1.4657    0.9736 C.3     1  UNL1       -0.0255
     12 C           0.6468   -1.4238    1.1892 C.ar    1  UNL1       -0.0198
     13 C           1.7783   -2.1576    0.8328 C.ar    1  UNL1       -0.0571
     14 C           2.7489   -1.5849    0.0085 C.ar    1  UNL1       -0.0461
     15 H           1.3459    1.4913   -0.4124 H       1  UNL1        0.0666
     16 H          -1.7366   -1.5392   -0.3820 H       1  UNL1        0.0268
     17 H          -3.3580   -0.8464   -0.3182 H       1  UNL1        0.0268
     18 H          -2.5125   -1.2878    1.1807 H       1  UNL1        0.0268
     19 H          -2.4675    1.2204   -1.7030 H       1  UNL1        0.0268
     20 H          -0.8722    0.4672   -1.7272 H       1  UNL1        0.0268
     21 H          -1.0513    2.1014   -1.0911 H       1  UNL1        0.0268
     22 H          -2.3988    2.4836    1.0718 H       1  UNL1        0.0268
     23 H          -2.9906    1.1106    1.9922 H       1  UNL1        0.0268
     24 H          -3.7467    1.5156    0.4356 H       1  UNL1        0.0268
     25 H          -0.0944   -1.8590    1.8534 H       1  UNL1        0.0654
     26 H           1.9090   -3.1702    1.2056 H       1  UNL1        0.0619
     27 H           3.6296   -2.1631   -0.2616 H       1  UNL1        0.0630
@<TRIPOS>BOND
     1     1     2    1
     2     2     3    3
     3    20    10    1
     4    19    10    1
     5     3     4    1
     6    10    21    1
     7    10     8    1
     8     4     5   ar
     9     4    14   ar
    10    15     5    1
    11    16     9    1
    12    17     9    1
    13    27    14    1
    14     5     6   ar
    15    14    13   ar
    16     9     8    1
    17     9    18    1
    18     8    11    1
    19     8     7    1
    20    24    11    1
    21     6     7    1
    22     6    12   ar
    23    13    12   ar
    24    13    26    1
    25    11    22    1
    26    11    23    1
    27    12    25    1
