@<TRIPOS>MOLECULE
ClC#Cc1c(OCC)cccc1
 21 21 0 0 0
SMALL
GASTEIGER

@<TRIPOS>ATOM
      1 CL          1.8371   -4.0394   -3.0773 Cl      1  UNL1       -0.0223
      2 C           1.6716   -2.5891   -2.0914 C.1     1  UNL1        0.0098
      3 C           1.5615   -1.6002   -1.4196 C.1     1  UNL1       -0.0457
      4 C           1.4243   -0.4199   -0.6161 C.ar    1  UNL1        0.0677
      5 C           0.1924   -0.0778   -0.0281 C.ar    1  UNL1        0.1358
      6 O          -0.8544   -0.9261   -0.2786 O.3     1  UNL1       -0.4910
      7 C          -2.0708   -0.7720    0.4491 C.3     1  UNL1        0.0868
      8 C          -3.0346    0.1282   -0.3038 C.3     1  UNL1       -0.0307
      9 C           0.1110    1.0896    0.7381 C.ar    1  UNL1       -0.0187
     10 C           1.2385    1.8956    0.9275 C.ar    1  UNL1       -0.0582
     11 C           2.4564    1.5470    0.3503 C.ar    1  UNL1       -0.0604
     12 C           2.5497    0.3912   -0.4224 C.ar    1  UNL1       -0.0428
     13 H          -1.9084   -0.4427    1.4812 H       1  UNL1        0.0694
     14 H          -2.5166   -1.7707    0.5210 H       1  UNL1        0.0694
     15 H          -3.2120   -0.2601   -1.3123 H       1  UNL1        0.0262
     16 H          -2.6313    1.1383   -0.4209 H       1  UNL1        0.0262
     17 H          -3.9922    0.1936    0.2206 H       1  UNL1        0.0262
     18 H          -0.8181    1.4119    1.1953 H       1  UNL1        0.0654
     19 H           1.1619    2.8010    1.5251 H       1  UNL1        0.0619
     20 H           3.3309    2.1755    0.4983 H       1  UNL1        0.0618
     21 H           3.5031    0.1261   -0.8738 H       1  UNL1        0.0631
@<TRIPOS>BOND
     1     1     2    1
     2     2     3    3
     3     3     4    1
     4    15     8    1
     5    21    12    1
     6     4    12   ar
     7     4     5   ar
     8    12    11   ar
     9    16     8    1
    10     8    17    1
    11     8     7    1
    12     6     5    1
    13     6     7    1
    14     5     9   ar
    15    11    20    1
    16    11    10   ar
    17     7    14    1
    18     7    13    1
    19     9    10   ar
    20     9    18    1
    21    10    19    1
