@<TRIPOS>MOLECULE
ClC#Cc1ccc([Si](C)(C(C)(C)C)C)cc1
 35 35 0 0 0
SMALL
GASTEIGER

@<TRIPOS>ATOM
      1 CL          6.8557    0.7716   -4.1174 Cl      1  UNL1        0.0000
      2 C           5.4352    0.6494   -3.0833 C.1     1  UNL1        0.0000
      3 C           4.4668    0.5660   -2.3784 C.1     1  UNL1        0.0000
      4 C           3.3135    0.4667   -1.5389 C.ar    1  UNL1        0.0000
      5 C           2.9577   -0.7607   -0.9805 C.ar    1  UNL1        0.0000
      6 C           1.8298   -0.8598   -0.1597 C.ar    1  UNL1        0.0000
      7 C           1.0409    0.2709    0.1141 C.ar    1  UNL1        0.0000
      8 SI         -0.5015    0.1373    1.2300 Si      1  UNL1        0.0000
      9 C          -0.8562    1.7595    2.1043 C.3     1  UNL1        0.0000
     10 C          -2.1208   -0.3033    0.0092 C.3     1  UNL1        0.0000
     11 C          -1.8639   -1.6404   -0.7155 C.3     1  UNL1        0.0000
     12 C          -2.3016    0.8264   -1.0252 C.3     1  UNL1        0.0000
     13 C          -3.3868   -0.4182    0.8837 C.3     1  UNL1        0.0000
     14 C          -0.3223   -1.2492    2.4820 C.3     1  UNL1        0.0000
     15 C           1.4108    1.5013   -0.4561 C.ar    1  UNL1        0.0000
     16 C           2.5394    1.5967   -1.2764 C.ar    1  UNL1        0.0000
     17 H           3.5520   -1.6497   -1.1784 H       1  UNL1        0.0000
     18 H           1.5803   -1.8345    0.2556 H       1  UNL1        0.0000
     19 H          -0.0013    2.0592    2.7179 H       1  UNL1        0.0000
     20 H          -1.7256    1.6611    2.7611 H       1  UNL1        0.0000
     21 H          -1.0605    2.5609    1.3889 H       1  UNL1        0.0000
     22 H          -1.7203   -2.4633   -0.0068 H       1  UNL1        0.0000
     23 H          -0.9754   -1.5902   -1.3542 H       1  UNL1        0.0000
     24 H          -2.7135   -1.9026   -1.3565 H       1  UNL1        0.0000
     25 H          -2.4757    1.7937   -0.5412 H       1  UNL1        0.0000
     26 H          -3.1617    0.6235   -1.6736 H       1  UNL1        0.0000
     27 H          -1.4223    0.9288   -1.6704 H       1  UNL1        0.0000
     28 H          -4.2634   -0.6510    0.2683 H       1  UNL1        0.0000
     29 H          -3.2897   -1.2127    1.6319 H       1  UNL1        0.0000
     30 H          -3.5966    0.5170    1.4148 H       1  UNL1        0.0000
     31 H          -0.2123   -2.2190    1.9888 H       1  UNL1        0.0000
     32 H           0.5566   -1.0851    3.1126 H       1  UNL1        0.0000
     33 H          -1.2007   -1.2968    3.1324 H       1  UNL1        0.0000
     34 H           0.8283    2.4031   -0.2763 H       1  UNL1        0.0000
     35 H           2.8051    2.5594   -1.7068 H       1  UNL1        0.0000
@<TRIPOS>BOND
     1     1     2    1
     2     2     3    3
     3     3     4    1
     4    35    16    1
     5    26    12    1
     6    27    12    1
     7     4    16   ar
     8     4     5   ar
     9    24    11    1
    10    23    11    1
    11    16    15   ar
    12    17     5    1
    13    12    25    1
    14    12    10    1
    15     5     6   ar
    16    11    22    1
    17    11    10    1
    18    15    34    1
    19    15     7   ar
    20     6     7   ar
    21     6    18    1
    22    10    13    1
    23    10     8    1
    24     7     8    1
    25    28    13    1
    26    13    30    1
    27    13    29    1
    28     8     9    1
    29     8    14    1
    30    21     9    1
    31    31    14    1
    32     9    19    1
    33     9    20    1
    34    14    32    1
    35    14    33    1
