@<TRIPOS>MOLECULE
ClC#Cc1cc(F)ccc1
 14 14 0 0 0
SMALL
GASTEIGER

@<TRIPOS>ATOM
      1 CL          5.0148   -0.6998   -0.3356 Cl      1  UNL1       -0.0223
      2 C           3.2746   -0.4540   -0.2202 C.1     1  UNL1        0.0097
      3 C           2.0884   -0.2859   -0.1417 C.1     1  UNL1       -0.0492
      4 C           0.6756   -0.0853   -0.0484 C.ar    1  UNL1        0.0288
      5 C          -0.1473   -1.1125    0.4147 C.ar    1  UNL1       -0.0110
      6 C          -1.5192   -0.9010    0.4993 C.ar    1  UNL1        0.1246
      7 F          -2.3105   -1.8862    0.9438 F       1  UNL1       -0.2054
      8 C          -2.0848    0.3152    0.1308 C.ar    1  UNL1       -0.0264
      9 C          -1.2639    1.3424   -0.3321 C.ar    1  UNL1       -0.0579
     10 C           0.1165    1.1421   -0.4217 C.ar    1  UNL1       -0.0461
     11 H           0.2604   -2.0740    0.7107 H       1  UNL1        0.0658
     12 H          -3.1588    0.4532    0.2069 H       1  UNL1        0.0646
     13 H          -1.6961    2.2967   -0.6226 H       1  UNL1        0.0619
     14 H           0.7503    1.9490   -0.7840 H       1  UNL1        0.0630
@<TRIPOS>BOND
     1    14    10    1
     2    13     9    1
     3    10     9   ar
     4    10     4   ar
     5     1     2    1
     6     9     8   ar
     7     2     3    3
     8     3     4    1
     9     4     5   ar
    10     8    12    1
    11     8     6   ar
    12     5     6   ar
    13     5    11    1
    14     6     7    1
