@<TRIPOS>MOLECULE
ClC#Cc1ccc(OC)cc1
 18 18 0 0 0
SMALL
GASTEIGER

@<TRIPOS>ATOM
      1 CL          6.0472    0.2629   -0.4894 Cl      1  UNL1       -0.0223
      2 C           4.2921    0.1393   -0.4108 C.1     1  UNL1        0.0097
      3 C           3.0956    0.0554   -0.3569 C.1     1  UNL1       -0.0493
      4 C           1.6707   -0.0443   -0.2925 C.ar    1  UNL1        0.0263
      5 C           0.9845   -0.8657   -1.1865 C.ar    1  UNL1       -0.0428
      6 C          -0.4081   -0.9585   -1.1178 C.ar    1  UNL1       -0.0188
      7 C          -1.1255   -0.2357   -0.1607 C.ar    1  UNL1        0.1202
      8 O          -2.4799   -0.4184   -0.2046 O.3     1  UNL1       -0.4951
      9 C          -3.2568    0.2951    0.7491 C.3     1  UNL1        0.0788
     10 C          -0.4356    0.5853    0.7324 C.ar    1  UNL1       -0.0188
     11 C           0.9598    0.6804    0.6661 C.ar    1  UNL1       -0.0428
     12 H           1.5211   -1.4375   -1.9396 H       1  UNL1        0.0631
     13 H          -0.9396   -1.6001   -1.8168 H       1  UNL1        0.0654
     14 H          -3.0010   -0.0051    1.7706 H       1  UNL1        0.0660
     15 H          -3.1500    1.3766    0.6155 H       1  UNL1        0.0660
     16 H          -4.3079    0.0413    0.5810 H       1  UNL1        0.0660
     17 H          -0.9501    1.1647    1.4917 H       1  UNL1        0.0654
     18 H           1.4834    1.3245    1.3691 H       1  UNL1        0.0631
@<TRIPOS>BOND
     1    12     5    1
     2    13     6    1
     3     5     6   ar
     4     5     4   ar
     5     6     7   ar
     6     1     2    1
     7     2     3    3
     8     3     4    1
     9     4    11   ar
    10     8     7    1
    11     8     9    1
    12     7    10   ar
    13    16     9    1
    14    15     9    1
    15    11    10   ar
    16    11    18    1
    17    10    17    1
    18     9    14    1
