@<TRIPOS>MOLECULE
ClC#Cc1cc(C(c2ccccc2))ccc1
 27 28 0 0 0
SMALL
GASTEIGER

@<TRIPOS>ATOM
      1 CL          5.0728   -2.4332   -3.0785 Cl      1  UNL1       -0.0223
      2 C           4.1129   -1.3921   -2.0312 C.1     1  UNL1        0.0097
      3 C           3.4591   -0.6825   -1.3167 C.1     1  UNL1       -0.0493
      4 C           2.6796    0.1621   -0.4656 C.ar    1  UNL1        0.0264
      5 C           1.5285   -0.3370    0.1505 C.ar    1  UNL1       -0.0428
      6 C           0.7529    0.4835    0.9856 C.ar    1  UNL1       -0.0419
      7 C          -0.4920   -0.0575    1.6526 C.3     1  UNL1       -0.0024
      8 C          -1.6047   -0.4058    0.6902 C.ar    1  UNL1       -0.0431
      9 C          -2.2697    0.6006   -0.0257 C.ar    1  UNL1       -0.0583
     10 C          -3.2968    0.2782   -0.9141 C.ar    1  UNL1       -0.0615
     11 C          -3.6709   -1.0516   -1.0955 C.ar    1  UNL1       -0.0617
     12 C          -3.0185   -2.0604   -0.3895 C.ar    1  UNL1       -0.0615
     13 C          -1.9906   -1.7403    0.4993 C.ar    1  UNL1       -0.0583
     14 C           1.1540    1.8108    1.1938 C.ar    1  UNL1       -0.0582
     15 C           2.3042    2.3086    0.5793 C.ar    1  UNL1       -0.0603
     16 C           3.0667    1.4856   -0.2497 C.ar    1  UNL1       -0.0463
     17 H           1.2261   -1.3679   -0.0237 H       1  UNL1        0.0633
     18 H          -0.2090   -0.9372    2.2457 H       1  UNL1        0.0361
     19 H          -0.8817    0.6661    2.3808 H       1  UNL1        0.0361
     20 H          -1.9856    1.6429    0.1013 H       1  UNL1        0.0620
     21 H          -3.8029    1.0654   -1.4666 H       1  UNL1        0.0618
     22 H          -4.4698   -1.3019   -1.7884 H       1  UNL1        0.0618
     23 H          -3.3096   -3.0978   -0.5318 H       1  UNL1        0.0618
     24 H          -1.4920   -2.5411    1.0406 H       1  UNL1        0.0620
     25 H           0.5709    2.4679    1.8358 H       1  UNL1        0.0620
     26 H           2.6060    3.3396    0.7459 H       1  UNL1        0.0618
     27 H           3.9600    1.8843   -0.7244 H       1  UNL1        0.0630
@<TRIPOS>BOND
     1     1     2    1
     2     2     3    3
     3    22    11    1
     4    21    10    1
     5     3     4    1
     6    11    10   ar
     7    11    12   ar
     8    10     9   ar
     9    27    16    1
    10    23    12    1
    11     4    16   ar
    12     4     5   ar
    13    12    13   ar
    14    16    15   ar
    15     9    20    1
    16     9     8   ar
    17    17     5    1
    18     5     6   ar
    19    13     8   ar
    20    13    24    1
    21    15    26    1
    22    15    14   ar
    23     8     7    1
    24     6    14   ar
    25     6     7    1
    26    14    25    1
    27     7    18    1
    28     7    19    1
