@<TRIPOS>MOLECULE
ClC#Cc1c(Cl)cccc1
 14 14 0 0 0
SMALL
GASTEIGER

@<TRIPOS>ATOM
      1 CL          4.8931    0.5106   -1.1673 Cl      1  UNL1       -0.0223
      2 C           3.1888    0.3349   -0.7598 C.1     1  UNL1        0.0098
      3 C           2.0269    0.2131   -0.4829 C.1     1  UNL1       -0.0479
      4 C           0.6398    0.0677   -0.1522 C.ar    1  UNL1        0.0444
      5 C          -0.0870    1.0849    0.4818 C.ar    1  UNL1        0.0564
      6 CL          0.6362    2.5952    0.9139 Cl      1  UNL1       -0.0823
      7 C          -1.4394    0.8977    0.7850 C.ar    1  UNL1       -0.0422
      8 C          -2.0714   -0.3027    0.4577 C.ar    1  UNL1       -0.0603
      9 C          -1.3537   -1.3175   -0.1727 C.ar    1  UNL1       -0.0605
     10 C          -0.0029   -1.1338   -0.4770 C.ar    1  UNL1       -0.0449
     11 H          -2.0061    1.6846    1.2767 H       1  UNL1        0.0632
     12 H          -3.1231   -0.4456    0.6946 H       1  UNL1        0.0618
     13 H          -1.8454   -2.2535   -0.4282 H       1  UNL1        0.0618
     14 H           0.5442   -1.9355   -0.9694 H       1  UNL1        0.0630
@<TRIPOS>BOND
     1     1     2    1
     2    14    10    1
     3     2     3    3
     4     3     4    1
     5    10     9   ar
     6    10     4   ar
     7    13     9    1
     8     9     8   ar
     9     4     5   ar
    10     8    12    1
    11     8     7   ar
    12     5     7   ar
    13     5     6    1
    14     7    11    1
