@<TRIPOS>MOLECULE
ClC#Cc1ccc(C)cc1
 17 17 0 0 0
SMALL
GASTEIGER

@<TRIPOS>ATOM
      1 CL          5.6978   -1.0542    0.0123 Cl      1  UNL1       -0.0223
      2 C           3.9674   -0.7330    0.0802 C.1     1  UNL1        0.0097
      3 C           2.7878   -0.5141    0.1266 C.1     1  UNL1       -0.0493
      4 C           1.3828   -0.2533    0.1817 C.ar    1  UNL1        0.0261
      5 C           0.9172    0.9801    0.6402 C.ar    1  UNL1       -0.0460
      6 C          -0.4558    1.2344    0.6946 C.ar    1  UNL1       -0.0577
      7 C          -1.3746    0.2619    0.2813 C.ar    1  UNL1       -0.0504
      8 C          -2.8492    0.5230    0.3716 C.3     1  UNL1       -0.0397
      9 C          -0.9002   -0.9782   -0.1637 C.ar    1  UNL1       -0.0577
     10 C           0.4727   -1.2331   -0.2183 C.ar    1  UNL1       -0.0460
     11 H           1.6155    1.7497    0.9604 H       1  UNL1        0.0630
     12 H          -0.8035    2.1978    1.0612 H       1  UNL1        0.0621
     13 H          -3.0673    1.5860    0.2243 H       1  UNL1        0.0278
     14 H          -3.3918   -0.0297   -0.4025 H       1  UNL1        0.0278
     15 H          -3.2237    0.2173    1.3533 H       1  UNL1        0.0278
     16 H          -1.5973   -1.7544   -0.4719 H       1  UNL1        0.0621
     17 H           0.8222   -2.2002   -0.5718 H       1  UNL1        0.0630
@<TRIPOS>BOND
     1    17    10    1
     2    16     9    1
     3    14     8    1
     4    10     9   ar
     5    10     4   ar
     6     9     7   ar
     7     1     2    1
     8     2     3    3
     9     3     4    1
    10     4     5   ar
    11    13     8    1
    12     7     8    1
    13     7     6   ar
    14     8    15    1
    15     5     6   ar
    16     5    11    1
    17     6    12    1
