@<TRIPOS>MOLECULE
ClC#Cc1c(CC(c2ccccc2))cccc1
 30 31 0 0 0
SMALL
GASTEIGER

@<TRIPOS>ATOM
      1 CL         -1.8240    3.0464   -3.3381 Cl      1  UNL1       -0.0223
      2 C          -2.1764    1.7650   -2.1829 C.1     1  UNL1        0.0097
      3 C          -2.4045    0.8900   -1.3931 C.1     1  UNL1       -0.0490
      4 C          -2.6632   -0.1576   -0.4496 C.ar    1  UNL1        0.0293
      5 C          -1.7071   -0.5406    0.5098 C.ar    1  UNL1       -0.0316
      6 C          -0.3450    0.1133    0.6037 C.3     1  UNL1       -0.0225
      7 C           0.6552   -0.5091   -0.3753 C.3     1  UNL1       -0.0237
      8 C           1.9943    0.1828   -0.3126 C.ar    1  UNL1       -0.0470
      9 C           2.9969   -0.2821    0.5485 C.ar    1  UNL1       -0.0586
     10 C           4.2274    0.3730    0.6182 C.ar    1  UNL1       -0.0615
     11 C           4.4647    1.4993   -0.1677 C.ar    1  UNL1       -0.0617
     12 C           3.4717    1.9728   -1.0233 C.ar    1  UNL1       -0.0615
     13 C           2.2407    1.3193   -1.0948 C.ar    1  UNL1       -0.0586
     14 C          -2.0190   -1.5862    1.3960 C.ar    1  UNL1       -0.0574
     15 C          -3.2564   -2.2285    1.3366 C.ar    1  UNL1       -0.0614
     16 C          -4.1985   -1.8390    0.3890 C.ar    1  UNL1       -0.0606
     17 C          -3.9027   -0.8075   -0.5021 C.ar    1  UNL1       -0.0460
     18 H           0.0323    0.0212    1.6313 H       1  UNL1        0.0317
     19 H          -0.4394    1.1938    0.4368 H       1  UNL1        0.0317
     20 H           0.2775   -0.4643   -1.4047 H       1  UNL1        0.0316
     21 H           0.7842   -1.5778   -0.1585 H       1  UNL1        0.0316
     22 H           2.8257   -1.1580    1.1700 H       1  UNL1        0.0620
     23 H           5.0012    0.0047    1.2865 H       1  UNL1        0.0618
     24 H           5.4230    2.0087   -0.1128 H       1  UNL1        0.0618
     25 H           3.6552    2.8521   -1.6351 H       1  UNL1        0.0618
     26 H           1.4741    1.7025   -1.7650 H       1  UNL1        0.0620
     27 H          -1.2947   -1.9072    2.1423 H       1  UNL1        0.0621
     28 H          -3.4841   -3.0338    2.0306 H       1  UNL1        0.0618
     29 H          -5.1627   -2.3386    0.3419 H       1  UNL1        0.0618
     30 H          -4.6467   -0.5148   -1.2399 H       1  UNL1        0.0630
@<TRIPOS>BOND
     1     1     2    1
     2     2     3    3
     3    26    13    1
     4    25    12    1
     5    20     7    1
     6     3     4    1
     7    30    17    1
     8    13    12   ar
     9    13     8   ar
    10    12    11   ar
    11    17     4   ar
    12    17    16   ar
    13     4     5   ar
    14     7     8    1
    15     7    21    1
    16     7     6    1
    17     8     9   ar
    18    11    24    1
    19    11    10   ar
    20    29    16    1
    21    16    15   ar
    22    19     6    1
    23     5     6    1
    24     5    14   ar
    25     9    10   ar
    26     9    22    1
    27     6    18    1
    28    10    23    1
    29    15    14   ar
    30    15    28    1
    31    14    27    1
