@<TRIPOS>MOLECULE
ClC#Cc1c(OC)cccc1
 18 18 0 0 0
SMALL
GASTEIGER

@<TRIPOS>ATOM
      1 CL          4.2506   -2.8656   -0.5613 Cl      1  UNL1       -0.0223
      2 C           2.6582   -2.1360   -0.3751 C.1     1  UNL1        0.0098
      3 C           1.5715   -1.6416   -0.2483 C.1     1  UNL1       -0.0457
      4 C           0.2754   -1.0463   -0.0966 C.ar    1  UNL1        0.0677
      5 C           0.1241    0.3454    0.0423 C.ar    1  UNL1        0.1354
      6 O           1.2766    1.0895    0.0242 O.3     1  UNL1       -0.4939
      7 C           1.1513    2.4984    0.1629 C.3     1  UNL1        0.0788
      8 C          -1.1628    0.8763    0.1874 C.ar    1  UNL1       -0.0187
      9 C          -2.2805    0.0355    0.1941 C.ar    1  UNL1       -0.0582
     10 C          -2.1245   -1.3412    0.0562 C.ar    1  UNL1       -0.0604
     11 C          -0.8482   -1.8823   -0.0890 C.ar    1  UNL1       -0.0428
     12 H           0.7115    2.7624    1.1302 H       1  UNL1        0.0660
     13 H           0.5770    2.9271   -0.6649 H       1  UNL1        0.0660
     14 H           2.1570    2.9283    0.1270 H       1  UNL1        0.0660
     15 H          -1.3331    1.9421    0.2979 H       1  UNL1        0.0654
     16 H          -3.2757    0.4591    0.3075 H       1  UNL1        0.0619
     17 H          -2.9947   -1.9926    0.0617 H       1  UNL1        0.0618
     18 H          -0.7338   -2.9586   -0.1963 H       1  UNL1        0.0631
@<TRIPOS>BOND
     1    13     7    1
     2     1     2    1
     3     2     3    3
     4     3     4    1
     5    18    11    1
     6     4    11   ar
     7     4     5   ar
     8    11    10   ar
     9     6     5    1
    10     6     7    1
    11     5     8   ar
    12    10    17    1
    13    10     9   ar
    14    14     7    1
    15     7    12    1
    16     8     9   ar
    17     8    15    1
    18     9    16    1
