@<TRIPOS>MOLECULE
ClC#Cc1cc(C(C)(C)C)ccc1
 26 26 0 0 0
SMALL
GASTEIGER

@<TRIPOS>ATOM
      1 CL          5.7408    1.9841   -1.9730 Cl      1  UNL1       -0.0223
      2 C           4.3671    1.0920   -1.3253 C.1     1  UNL1        0.0097
      3 C           3.4306    0.4842   -0.8838 C.1     1  UNL1       -0.0493
      4 C           2.3145   -0.2393   -0.3579 C.ar    1  UNL1        0.0264
      5 C           1.0439    0.3484   -0.3409 C.ar    1  UNL1       -0.0426
      6 C          -0.0795   -0.3355    0.1701 C.ar    1  UNL1       -0.0408
      7 C          -1.4608    0.3434    0.1722 C.3     1  UNL1       -0.0126
      8 C          -2.5873   -0.5341    0.7635 C.3     1  UNL1       -0.0560
      9 C          -1.4021    1.6374    1.0124 C.3     1  UNL1       -0.0560
     10 C          -1.8687    0.6950   -1.2749 C.3     1  UNL1       -0.0560
     11 C           0.1286   -1.6348    0.6630 C.ar    1  UNL1       -0.0580
     12 C           1.3973   -2.2245    0.6472 C.ar    1  UNL1       -0.0603
     13 C           2.4899   -1.5285    0.1375 C.ar    1  UNL1       -0.0463
     14 H           0.9330    1.3573   -0.7340 H       1  UNL1        0.0633
     15 H          -3.5495   -0.0083    0.7432 H       1  UNL1        0.0238
     16 H          -2.7161   -1.4626    0.1952 H       1  UNL1        0.0238
     17 H          -2.3869   -0.7978    1.8086 H       1  UNL1        0.0238
     18 H          -1.0846    1.4261    2.0404 H       1  UNL1        0.0238
     19 H          -0.7025    2.3707    0.5965 H       1  UNL1        0.0238
     20 H          -2.3839    2.1229    1.0596 H       1  UNL1        0.0238
     21 H          -1.1789    1.4085   -1.7386 H       1  UNL1        0.0238
     22 H          -2.8664    1.1485   -1.3052 H       1  UNL1        0.0238
     23 H          -1.8900   -0.2005   -1.9073 H       1  UNL1        0.0238
     24 H          -0.6882   -2.2233    1.0722 H       1  UNL1        0.0620
     25 H           1.5295   -3.2316    1.0352 H       1  UNL1        0.0618
     26 H           3.4704   -1.9977    0.1308 H       1  UNL1        0.0630
@<TRIPOS>BOND
     1     1     2    1
     2    23    10    1
     3    21    10    1
     4     2     3    3
     5    22    10    1
     6    10     7    1
     7     3     4    1
     8    14     5    1
     9     4     5   ar
    10     4    13   ar
    11     5     6   ar
    12    26    13    1
    13    13    12   ar
    14     6     7    1
    15     6    11   ar
    16     7     8    1
    17     7     9    1
    18    16     8    1
    19    19     9    1
    20    12    11   ar
    21    12    25    1
    22    11    24    1
    23    15     8    1
    24     8    17    1
    25     9    20    1
    26     9    18    1
