@<TRIPOS>MOLECULE
ClC#Cc1ccc(OC(C)(C)C)cc1
 27 27 0 0 0
SMALL
GASTEIGER

@<TRIPOS>ATOM
      1 CL          7.0255    0.4948   -1.9293 Cl      1  UNL1       -0.0223
      2 C           5.3750    0.1886   -1.3962 C.1     1  UNL1        0.0097
      3 C           4.2498   -0.0198   -1.0329 C.1     1  UNL1       -0.0493
      4 C           2.9095   -0.2674   -0.6004 C.ar    1  UNL1        0.0263
      5 C           1.9963   -0.8763   -1.4652 C.ar    1  UNL1       -0.0428
      6 C           0.6878   -1.1194   -1.0410 C.ar    1  UNL1       -0.0188
      7 C           0.2871   -0.7268    0.2346 C.ar    1  UNL1        0.1213
      8 O          -0.9718   -1.0245    0.6698 O.3     1  UNL1       -0.4865
      9 C          -1.9882   -0.0155    0.4649 C.3     1  UNL1        0.1023
     10 C          -3.2667   -0.6400    1.0503 C.3     1  UNL1       -0.0255
     11 C          -1.6955    1.2819    1.2327 C.3     1  UNL1       -0.0255
     12 C          -2.2375    0.2784   -1.0216 C.3     1  UNL1       -0.0255
     13 C           1.2062   -0.1596    1.1150 C.ar    1  UNL1       -0.0188
     14 C           2.5152    0.0845    0.6931 C.ar    1  UNL1       -0.0428
     15 H           2.2970   -1.1749   -2.4666 H       1  UNL1        0.0631
     16 H          -0.0124   -1.6192   -1.7039 H       1  UNL1        0.0654
     17 H          -3.5068   -1.5822    0.5437 H       1  UNL1        0.0268
     18 H          -4.1279    0.0303    0.9590 H       1  UNL1        0.0268
     19 H          -3.1301   -0.8848    2.1103 H       1  UNL1        0.0268
     20 H          -0.8354    1.8130    0.8114 H       1  UNL1        0.0268
     21 H          -1.4633    1.0727    2.2828 H       1  UNL1        0.0268
     22 H          -2.5499    1.9668    1.1984 H       1  UNL1        0.0268
     23 H          -2.3931   -0.6487   -1.5843 H       1  UNL1        0.0268
     24 H          -1.3858    0.7940   -1.4778 H       1  UNL1        0.0268
     25 H          -3.1168    0.9172   -1.1597 H       1  UNL1        0.0268
     26 H           0.9094    0.0876    2.1301 H       1  UNL1        0.0654
     27 H           3.2225    0.5387    1.3829 H       1  UNL1        0.0631
@<TRIPOS>BOND
     1    15     5    1
     2     1     2    1
     3    16     6    1
     4    23    12    1
     5    24    12    1
     6     5     6   ar
     7     5     4   ar
     8     2     3    3
     9    25    12    1
    10     6     7   ar
    11     3     4    1
    12    12     9    1
    13     4    14   ar
    14     7     8    1
    15     7    13   ar
    16     9     8    1
    17     9    10    1
    18     9    11    1
    19    17    10    1
    20    14    13   ar
    21    14    27    1
    22    20    11    1
    23    18    10    1
    24    10    19    1
    25    13    26    1
    26    22    11    1
    27    11    21    1
