@<TRIPOS>MOLECULE
ClC#Cc1c(CC)cccc1
 20 20 0 0 0
SMALL
GASTEIGER

@<TRIPOS>ATOM
      1 CL          2.2072    4.5325    0.7931 Cl      1  UNL1       -0.0223
      2 C           1.7829    2.8400    0.5549 C.1     1  UNL1        0.0097
      3 C           1.4913    1.6866    0.3922 C.1     1  UNL1       -0.0490
      4 C           1.1451    0.3080    0.1980 C.ar    1  UNL1        0.0293
      5 C          -0.1824   -0.0902   -0.0732 C.ar    1  UNL1       -0.0322
      6 C          -1.2828    0.9512   -0.1654 C.3     1  UNL1       -0.0294
      7 C          -2.6936    0.4543   -0.4609 C.3     1  UNL1       -0.0612
      8 C          -0.4359   -1.4614   -0.2504 C.ar    1  UNL1       -0.0574
      9 C           0.5921   -2.4043   -0.1614 C.ar    1  UNL1       -0.0614
     10 C           1.8942   -1.9969    0.1063 C.ar    1  UNL1       -0.0606
     11 C           2.1704   -0.6435    0.2857 C.ar    1  UNL1       -0.0460
     12 H          -1.3178    1.4981    0.7852 H       1  UNL1        0.0311
     13 H          -1.0131    1.6663   -0.9528 H       1  UNL1        0.0311
     14 H          -3.3875    1.3005   -0.5007 H       1  UNL1        0.0233
     15 H          -2.7415   -0.0612   -1.4258 H       1  UNL1        0.0233
     16 H          -3.0472   -0.2299    0.3175 H       1  UNL1        0.0233
     17 H          -1.4379   -1.8260   -0.4614 H       1  UNL1        0.0621
     18 H           0.3717   -3.4597   -0.3022 H       1  UNL1        0.0618
     19 H           2.6929   -2.7305    0.1754 H       1  UNL1        0.0618
     20 H           3.1921   -0.3338    0.4949 H       1  UNL1        0.0630
@<TRIPOS>BOND
     1    15     7    1
     2    13     6    1
     3    14     7    1
     4    17     8    1
     5     7     6    1
     6     7    16    1
     7    18     9    1
     8     8     9   ar
     9     8     5   ar
    10     6     5    1
    11     6    12    1
    12     9    10   ar
    13     5     4   ar
    14    10    19    1
    15    10    11   ar
    16     4    11   ar
    17     4     3    1
    18    11    20    1
    19     3     2    3
    20     2     1    1
