@<TRIPOS>MOLECULE
ClC#Cc1c(C(C)(C)C)cccc1
 26 26 0 0 0
SMALL
GASTEIGER

@<TRIPOS>ATOM
      1 CL          0.5486    4.4635    2.1626 Cl      1  UNL1       -0.0223
      2 C           0.8506    2.8897    1.4330 C.1     1  UNL1        0.0097
      3 C           1.0515    1.8153    0.9347 C.1     1  UNL1       -0.0490
      4 C           1.3445    0.5401    0.3462 C.ar    1  UNL1        0.0298
      5 C           0.3578   -0.3583   -0.1344 C.ar    1  UNL1       -0.0266
      6 C          -1.1666   -0.0762   -0.0852 C.3     1  UNL1       -0.0115
      7 C          -2.0325   -1.2230   -0.6769 C.3     1  UNL1       -0.0560
      8 C          -1.5186    1.1786   -0.9143 C.3     1  UNL1       -0.0560
      9 C          -1.6454    0.0938    1.3735 C.3     1  UNL1       -0.0560
     10 C           0.8321   -1.5730   -0.6841 C.ar    1  UNL1       -0.0569
     11 C           2.1946   -1.8835   -0.7559 C.ar    1  UNL1       -0.0614
     12 C           3.1374   -0.9883   -0.2791 C.ar    1  UNL1       -0.0606
     13 C           2.7130    0.2166    0.2687 C.ar    1  UNL1       -0.0460
     14 H          -1.8025   -1.4004   -1.7342 H       1  UNL1        0.0238
     15 H          -3.1013   -0.9816   -0.6217 H       1  UNL1        0.0238
     16 H          -1.8915   -2.1618   -0.1284 H       1  UNL1        0.0238
     17 H          -2.6041    1.3269   -0.9636 H       1  UNL1        0.0238
     18 H          -1.1029    2.0988   -0.4994 H       1  UNL1        0.0238
     19 H          -1.1496    1.0859   -1.9426 H       1  UNL1        0.0238
     20 H          -1.2337    0.9796    1.8609 H       1  UNL1        0.0238
     21 H          -1.3671   -0.7750    1.9818 H       1  UNL1        0.0238
     22 H          -2.7363    0.1961    1.4211 H       1  UNL1        0.0238
     23 H           0.1518   -2.3235   -1.0777 H       1  UNL1        0.0621
     24 H           2.5117   -2.8300   -1.1871 H       1  UNL1        0.0618
     25 H           4.1965   -1.2240   -0.3322 H       1  UNL1        0.0618
     26 H           3.4619    0.9139    0.6408 H       1  UNL1        0.0630
@<TRIPOS>BOND
     1    19     8    1
     2    14     7    1
     3    24    11    1
     4    23    10    1
     5    17     8    1
     6     8    18    1
     7     8     6    1
     8    11    10   ar
     9    11    12   ar
    10    10     5   ar
    11     7    15    1
    12     7    16    1
    13     7     6    1
    14    25    12    1
    15    12    13   ar
    16     5     6    1
    17     5     4   ar
    18     6     9    1
    19    13     4   ar
    20    13    26    1
    21     4     3    1
    22     3     2    3
    23     9    22    1
    24     9    20    1
    25     9    21    1
    26     2     1    1
