@<TRIPOS>MOLECULE
ClC#Cc1cc(OCC)ccc1
 21 21 0 0 0
SMALL
GASTEIGER

@<TRIPOS>ATOM
      1 CL          6.1617    0.5396    1.7176 Cl      1  UNL1       -0.0223
      2 C           4.5862    0.3526    0.9526 C.1     1  UNL1        0.0097
      3 C           3.5128    0.2252    0.4301 C.1     1  UNL1       -0.0492
      4 C           2.2343    0.0735   -0.1924 C.ar    1  UNL1        0.0296
      5 C           1.0797   -0.0092    0.5897 C.ar    1  UNL1       -0.0045
      6 C          -0.1755   -0.1576   -0.0086 C.ar    1  UNL1        0.1216
      7 O          -1.2209   -0.2255    0.8708 O.3     1  UNL1       -0.4922
      8 C          -2.5274   -0.3772    0.3186 C.3     1  UNL1        0.0868
      9 C          -3.5182   -0.4288    1.4677 C.3     1  UNL1       -0.0307
     10 C          -0.2674   -0.2230   -1.3998 C.ar    1  UNL1       -0.0199
     11 C           0.8869   -0.1405   -2.1845 C.ar    1  UNL1       -0.0571
     12 C           2.1366    0.0076   -1.5825 C.ar    1  UNL1       -0.0461
     13 H           1.1470    0.0414    1.6741 H       1  UNL1        0.0666
     14 H          -2.5931   -1.3105   -0.2524 H       1  UNL1        0.0694
     15 H          -2.7700    0.4765   -0.3248 H       1  UNL1        0.0694
     16 H          -4.5403   -0.5450    1.0963 H       1  UNL1        0.0262
     17 H          -3.4614    0.4860    2.0670 H       1  UNL1        0.0262
     18 H          -3.2883   -1.2637    2.1378 H       1  UNL1        0.0262
     19 H          -1.2201   -0.3378   -1.9059 H       1  UNL1        0.0654
     20 H           0.8104   -0.1919   -3.2679 H       1  UNL1        0.0619
     21 H           3.0270    0.0706   -2.2036 H       1  UNL1        0.0630
@<TRIPOS>BOND
     1    20    11    1
     2    21    12    1
     3    11    12   ar
     4    11    10   ar
     5    19    10    1
     6    12     4   ar
     7    10     6   ar
     8    15     8    1
     9    14     8    1
    10     4     3    1
    11     4     5   ar
    12     6     5   ar
    13     6     7    1
    14     8     7    1
    15     8     9    1
    16     3     2    3
    17     5    13    1
    18     2     1    1
    19    16     9    1
    20     9    17    1
    21     9    18    1
