@<TRIPOS>MOLECULE
ClC#Cc1cc(CC(c2ccccc2))ccc1
 30 31 0 0 0
SMALL
GASTEIGER

@<TRIPOS>ATOM
      1 CL          7.0279    1.4974    1.8182 Cl      1  UNL1       -0.0223
      2 C           5.6737    0.8775    0.8780 C.1     1  UNL1        0.0097
      3 C           4.7503    0.4551    0.2373 C.1     1  UNL1       -0.0493
      4 C           3.6501   -0.0477   -0.5255 C.ar    1  UNL1        0.0264
      5 C           2.3940   -0.1935    0.0707 C.ar    1  UNL1       -0.0431
      6 C           1.3094   -0.6881   -0.6687 C.ar    1  UNL1       -0.0459
      7 C          -0.0513   -0.8260   -0.0305 C.3     1  UNL1       -0.0237
      8 C          -0.8763    0.4553   -0.1776 C.3     1  UNL1       -0.0237
      9 C          -2.2356    0.3170    0.4622 C.ar    1  UNL1       -0.0470
     10 C          -3.3219   -0.1714   -0.2760 C.ar    1  UNL1       -0.0586
     11 C          -4.5743   -0.3176    0.3223 C.ar    1  UNL1       -0.0615
     12 C          -4.7512    0.0187    1.6632 C.ar    1  UNL1       -0.0617
     13 C          -3.6759    0.5001    2.4075 C.ar    1  UNL1       -0.0615
     14 C          -2.4226    0.6471    1.8112 C.ar    1  UNL1       -0.0586
     15 C           1.4996   -1.0247   -2.0155 C.ar    1  UNL1       -0.0585
     16 C           2.7536   -0.8792   -2.6105 C.ar    1  UNL1       -0.0603
     17 C           3.8286   -0.3919   -1.8665 C.ar    1  UNL1       -0.0463
     18 H           2.2568    0.0782    1.1156 H       1  UNL1        0.0632
     19 H          -0.5792   -1.6766   -0.4816 H       1  UNL1        0.0316
     20 H           0.0702   -1.0853    1.0296 H       1  UNL1        0.0316
     21 H          -0.3481    1.3062    0.2727 H       1  UNL1        0.0316
     22 H          -0.9985    0.7137   -1.2377 H       1  UNL1        0.0316
     23 H          -3.1989   -0.4405   -1.3226 H       1  UNL1        0.0620
     24 H          -5.4124   -0.6945   -0.2580 H       1  UNL1        0.0618
     25 H          -5.7268   -0.0952    2.1282 H       1  UNL1        0.0618
     26 H          -3.8131    0.7611    3.4535 H       1  UNL1        0.0618
     27 H          -1.5925    1.0217    2.4058 H       1  UNL1        0.0620
     28 H           0.6704   -1.4034   -2.6095 H       1  UNL1        0.0620
     29 H           2.8929   -1.1453   -3.6552 H       1  UNL1        0.0618
     30 H           4.8011   -0.2826   -2.3405 H       1  UNL1        0.0630
@<TRIPOS>BOND
     1    29    16    1
     2    16    15   ar
     3    16    17   ar
     4    28    15    1
     5    30    17    1
     6    15     6   ar
     7    17     4   ar
     8    23    10    1
     9    22     8    1
    10     6     7    1
    11     6     5   ar
    12     4     5   ar
    13     4     3    1
    14    19     7    1
    15    10    11   ar
    16    10     9   ar
    17    24    11    1
    18     8     7    1
    19     8    21    1
    20     8     9    1
    21     7    20    1
    22     5    18    1
    23     3     2    3
    24    11    12   ar
    25     9    14   ar
    26     2     1    1
    27    12    25    1
    28    12    13   ar
    29    14    27    1
    30    14    13   ar
    31    13    26    1
