@<TRIPOS>MOLECULE
ClC#Cc1ccc(Cl)cc1
 14 14 0 0 0
SMALL
GASTEIGER

@<TRIPOS>ATOM
      1 CL          5.0970   -0.0154   -0.3578 Cl      1  UNL1       -0.0223
      2 C           3.3401   -0.0101   -0.2352 C.1     1  UNL1        0.0097
      3 C           2.1424   -0.0065   -0.1516 C.1     1  UNL1       -0.0493
      4 C           0.7159   -0.0022   -0.0521 C.ar    1  UNL1        0.0262
      5 C           0.0138   -1.2101   -0.0088 C.ar    1  UNL1       -0.0449
      6 C          -1.3804   -1.2059    0.0884 C.ar    1  UNL1       -0.0422
      7 C          -2.0672    0.0062    0.1421 C.ar    1  UNL1        0.0410
      8 CL         -3.7833    0.0114    0.2618 Cl      1  UNL1       -0.0835
      9 C          -1.3724    1.2142    0.0994 C.ar    1  UNL1       -0.0422
     10 C           0.0218    1.2100    0.0021 C.ar    1  UNL1       -0.0449
     11 H           0.5436   -2.1593   -0.0503 H       1  UNL1        0.0630
     12 H          -1.9218   -2.1477    0.1217 H       1  UNL1        0.0632
     13 H          -1.9074    2.1593    0.1412 H       1  UNL1        0.0632
     14 H           0.5580    2.1559   -0.0309 H       1  UNL1        0.0630
@<TRIPOS>BOND
     1     1     2    1
     2     2     3    3
     3     3     4    1
     4     4     5   ar
     5     4    10   ar
     6    11     5    1
     7    14    10    1
     8     5     6   ar
     9    10     9   ar
    10     6    12    1
    11     6     7   ar
    12     9    13    1
    13     9     7   ar
    14     7     8    1
