@<TRIPOS>MOLECULE
ClC#Cc1cc([N+](=O)[O-])ccc1
 16 16 0 0 0
SMALL
GASTEIGER

@<TRIPOS>ATOM
      1 CL          5.3629    0.1497   -0.5937 Cl      1  UNL1       -0.0223
      2 C           3.6152    0.2231   -0.3902 C.1     1  UNL1        0.0097
      3 C           2.4237    0.2741   -0.2514 C.1     1  UNL1       -0.0493
      4 C           1.0044    0.3360   -0.0860 C.ar    1  UNL1        0.0283
      5 C           0.2481   -0.8382   -0.0965 C.ar    1  UNL1       -0.0160
      6 C          -1.1420   -0.7603    0.0669 C.ar    1  UNL1        0.1273
      7 N          -1.9435   -1.9901    0.0569 N.pl3   1  UNL1        0.0565
      8 O          -1.3472   -3.0652   -0.0979 O.2     1  UNL1       -0.1261
      9 O          -3.1690   -1.8807    0.2039 O.2     1  UNL1       -0.1261
     10 C          -1.7754    0.4783    0.2397 C.ar    1  UNL1       -0.0314
     11 C          -1.0102    1.6450    0.2486 C.ar    1  UNL1       -0.0584
     12 C           0.3756    1.5736    0.0862 C.ar    1  UNL1       -0.0462
     13 H           0.7427   -1.7985   -0.2309 H       1  UNL1        0.0652
     14 H          -2.8539    0.5501    0.3674 H       1  UNL1        0.0640
     15 H          -1.4921    2.6114    0.3821 H       1  UNL1        0.0619
     16 H           0.9607    2.4917    0.0951 H       1  UNL1        0.0630
@<TRIPOS>BOND
     1     1     2    1
     2     2     3    3
     3     3     4    1
     4    13     5    1
     5     8     7    2
     6     5     4   ar
     7     5     6   ar
     8     4    12   ar
     9     7     6    1
    10     7     9    2
    11     6    10   ar
    12    12    16    1
    13    12    11   ar
    14    10    11   ar
    15    10    14    1
    16    11    15    1
