@<TRIPOS>MOLECULE
ClC#Cc1cc(C(C)(C))ccc1
 23 23 0 0 0
SMALL
GASTEIGER

@<TRIPOS>ATOM
      1 CL          6.1035    1.1359   -1.3568 Cl      1  UNL1       -0.0223
      2 C           4.5170    0.5662   -0.8462 C.1     1  UNL1        0.0097
      3 C           3.4355    0.1780   -0.4983 C.1     1  UNL1       -0.0493
      4 C           2.1470   -0.2842   -0.0839 C.ar    1  UNL1        0.0264
      5 C           1.0001    0.4384   -0.4290 C.ar    1  UNL1       -0.0429
      6 C          -0.2730   -0.0016   -0.0302 C.ar    1  UNL1       -0.0436
      7 C          -1.5034    0.8002   -0.4170 C.3     1  UNL1       -0.0215
      8 C          -2.4449   -0.0107   -1.3109 C.3     1  UNL1       -0.0586
      9 C          -2.2413    1.3281    0.8158 C.3     1  UNL1       -0.0586
     10 C          -0.3688   -1.1823    0.7223 C.ar    1  UNL1       -0.0583
     11 C           0.7757   -1.9040    1.0671 C.ar    1  UNL1       -0.0603
     12 C           2.0331   -1.4559    0.6646 C.ar    1  UNL1       -0.0463
     13 H           1.0993    1.3513   -1.0132 H       1  UNL1        0.0633
     14 H          -1.1818    1.6746   -0.9983 H       1  UNL1        0.0343
     15 H          -3.2830    0.6085   -1.6487 H       1  UNL1        0.0235
     16 H          -2.8625   -0.8774   -0.7870 H       1  UNL1        0.0235
     17 H          -1.9205   -0.3788   -2.1997 H       1  UNL1        0.0235
     18 H          -2.6504    0.5167    1.4275 H       1  UNL1        0.0235
     19 H          -1.5709    1.9189    1.4500 H       1  UNL1        0.0235
     20 H          -3.0755    1.9726    0.5181 H       1  UNL1        0.0235
     21 H          -1.3388   -1.5518    1.0478 H       1  UNL1        0.0620
     22 H           0.6858   -2.8169    1.6504 H       1  UNL1        0.0618
     23 H           2.9176   -2.0257    0.9386 H       1  UNL1        0.0630
@<TRIPOS>BOND
     1    17     8    1
     2    15     8    1
     3     1     2    1
     4     8    16    1
     5     8     7    1
     6    13     5    1
     7    14     7    1
     8     2     3    3
     9     3     4    1
    10     5     4   ar
    11     5     6   ar
    12     7     6    1
    13     7     9    1
    14     4    12   ar
    15     6    10   ar
    16    20     9    1
    17    12    23    1
    18    12    11   ar
    19    10    21    1
    20    10    11   ar
    21     9    18    1
    22     9    19    1
    23    11    22    1
