@<TRIPOS>MOLECULE
ClC#Cc1cc(CC)ccc1
 20 20 0 0 0
SMALL
GASTEIGER

@<TRIPOS>ATOM
      1 CL          5.2040    1.7083    2.1837 Cl      1  UNL1       -0.0223
      2 C           3.8055    1.0651    1.3277 C.1     1  UNL1        0.0097
      3 C           2.8521    0.6267    0.7443 C.1     1  UNL1       -0.0493
      4 C           1.7163    0.1046    0.0496 C.ar    1  UNL1        0.0264
      5 C           0.4693    0.0618    0.6802 C.ar    1  UNL1       -0.0431
      6 C          -0.6504   -0.4507    0.0083 C.ar    1  UNL1       -0.0465
      7 C          -1.9985   -0.4802    0.6824 C.3     1  UNL1       -0.0305
      8 C          -2.7750    0.8068    0.4501 C.3     1  UNL1       -0.0613
      9 C          -0.5036   -0.9087   -1.3077 C.ar    1  UNL1       -0.0585
     10 C           0.7413   -0.8663   -1.9373 C.ar    1  UNL1       -0.0603
     11 C           1.8511   -0.3611   -1.2595 C.ar    1  UNL1       -0.0463
     12 H           0.3657    0.4295    1.6992 H       1  UNL1        0.0632
     13 H          -1.8688   -0.6462    1.7588 H       1  UNL1        0.0311
     14 H          -2.5778   -1.3346    0.3118 H       1  UNL1        0.0311
     15 H          -2.9498    0.9781   -0.6175 H       1  UNL1        0.0233
     16 H          -2.2346    1.6738    0.8452 H       1  UNL1        0.0233
     17 H          -3.7478    0.7572    0.9494 H       1  UNL1        0.0233
     18 H          -1.3607   -1.3012   -1.8509 H       1  UNL1        0.0620
     19 H           0.8458   -1.2259   -2.9579 H       1  UNL1        0.0618
     20 H           2.8160   -0.3323   -1.7599 H       1  UNL1        0.0630
@<TRIPOS>BOND
     1    19    10    1
     2    10     9   ar
     3    10    11   ar
     4    18     9    1
     5    20    11    1
     6     9     6   ar
     7    11     4   ar
     8    15     8    1
     9     6     5   ar
    10     6     7    1
    11     4     5   ar
    12     4     3    1
    13    14     7    1
    14     8     7    1
    15     8    16    1
    16     8    17    1
    17     5    12    1
    18     7    13    1
    19     3     2    3
    20     2     1    1
