@<TRIPOS>MOLECULE
ClC#Cc1ccc(CC)cc1
 20 20 0 0 0
SMALL
GASTEIGER

@<TRIPOS>ATOM
      1 CL          6.1554    0.6551   -1.4216 Cl      1  UNL1       -0.0223
      2 C           4.4572    0.3854   -1.0400 C.1     1  UNL1        0.0097
      3 C           3.2996    0.2016   -0.7799 C.1     1  UNL1       -0.0493
      4 C           1.9208   -0.0174   -0.4701 C.ar    1  UNL1        0.0261
      5 C           1.5317   -0.2775    0.8450 C.ar    1  UNL1       -0.0460
      6 C           0.1844   -0.4910    1.1477 C.ar    1  UNL1       -0.0574
      7 C          -0.7858   -0.4510    0.1377 C.ar    1  UNL1       -0.0475
      8 C          -2.2415   -0.6640    0.4672 C.3     1  UNL1       -0.0305
      9 C          -2.9402    0.6422    0.8120 C.3     1  UNL1       -0.0613
     10 C          -0.3873   -0.1826   -1.1785 C.ar    1  UNL1       -0.0574
     11 C           0.9600    0.0308   -1.4814 C.ar    1  UNL1       -0.0460
     12 H           2.2702   -0.3147    1.6423 H       1  UNL1        0.0630
     13 H          -0.1037   -0.6881    2.1781 H       1  UNL1        0.0621
     14 H          -2.3310   -1.3651    1.3059 H       1  UNL1        0.0311
     15 H          -2.7458   -1.1414   -0.3818 H       1  UNL1        0.0311
     16 H          -2.8974    1.3485   -0.0240 H       1  UNL1        0.0233
     17 H          -3.9933    0.4576    1.0464 H       1  UNL1        0.0233
     18 H          -2.4783    1.1225    1.6813 H       1  UNL1        0.0233
     19 H          -1.1249   -0.1374   -1.9769 H       1  UNL1        0.0621
     20 H           1.2498    0.2356   -2.5093 H       1  UNL1        0.0630
@<TRIPOS>BOND
     1    20    11    1
     2    19    10    1
     3    11    10   ar
     4    11     4   ar
     5     1     2    1
     6    10     7   ar
     7     2     3    3
     8     3     4    1
     9     4     5   ar
    10    15     8    1
    11    16     9    1
    12     7     8    1
    13     7     6   ar
    14     8     9    1
    15     8    14    1
    16     9    17    1
    17     9    18    1
    18     5     6   ar
    19     5    12    1
    20     6    13    1
