@<TRIPOS>MOLECULE
ClC#Cc1ccc(C(c2ccccc2))cc1
 27 28 0 0 0
SMALL
GASTEIGER

@<TRIPOS>ATOM
      1 CL          6.9496   -2.5624   -1.1328 Cl      1  UNL1       -0.0223
      2 C           5.4293   -1.7436   -0.7858 C.1     1  UNL1        0.0097
      3 C           4.3932   -1.1851   -0.5493 C.1     1  UNL1       -0.0493
      4 C           3.1590   -0.5199   -0.2677 C.ar    1  UNL1        0.0261
      5 C           2.3396   -0.9737    0.7668 C.ar    1  UNL1       -0.0460
      6 C           1.1336   -0.3236    1.0412 C.ar    1  UNL1       -0.0571
      7 C           0.7325    0.7862    0.2830 C.ar    1  UNL1       -0.0430
      8 C          -0.5723    1.4911    0.5817 C.3     1  UNL1       -0.0024
      9 C          -1.8023    0.6544    0.3113 C.ar    1  UNL1       -0.0431
     10 C          -2.6288    0.2405    1.3659 C.ar    1  UNL1       -0.0583
     11 C          -3.7658   -0.5297    1.1148 C.ar    1  UNL1       -0.0615
     12 C          -4.0888   -0.8934   -0.1910 C.ar    1  UNL1       -0.0617
     13 C          -3.2759   -0.4876   -1.2474 C.ar    1  UNL1       -0.0615
     14 C          -2.1391    0.2830   -0.9988 C.ar    1  UNL1       -0.0583
     15 C           1.5637    1.2347   -0.7534 C.ar    1  UNL1       -0.0571
     16 C           2.7703    0.5848   -1.0272 C.ar    1  UNL1       -0.0460
     17 H           2.6290   -1.8349    1.3642 H       1  UNL1        0.0630
     18 H           0.5029   -0.6932    1.8472 H       1  UNL1        0.0621
     19 H          -0.5533    1.8168    1.6301 H       1  UNL1        0.0361
     20 H          -0.6511    2.4158   -0.0051 H       1  UNL1        0.0361
     21 H          -2.3922    0.5143    2.3915 H       1  UNL1        0.0620
     22 H          -4.3996   -0.8466    1.9388 H       1  UNL1        0.0618
     23 H          -4.9733   -1.4941   -0.3854 H       1  UNL1        0.0618
     24 H          -3.5254   -0.7730   -2.2659 H       1  UNL1        0.0618
     25 H          -1.5120    0.5883   -1.8335 H       1  UNL1        0.0620
     26 H           1.2769    2.0930   -1.3571 H       1  UNL1        0.0621
     27 H           3.4002    0.9473   -1.8362 H       1  UNL1        0.0630
@<TRIPOS>BOND
     1    24    13    1
     2    27    16    1
     3    25    14    1
     4    26    15    1
     5    13    14   ar
     6    13    12   ar
     7     1     2    1
     8    16    15   ar
     9    16     4   ar
    10    14     9   ar
    11     2     3    3
    12    15     7   ar
    13     3     4    1
    14    23    12    1
    15     4     5   ar
    16    12    11   ar
    17    20     8    1
    18     7     8    1
    19     7     6   ar
    20     9     8    1
    21     9    10   ar
    22     8    19    1
    23     5     6   ar
    24     5    17    1
    25     6    18    1
    26    11    10   ar
    27    11    22    1
    28    10    21    1
