@<TRIPOS>MOLECULE
ClC#Cc1c(OC(C)(C)C)cccc1
 27 27 0 0 0
SMALL
GASTEIGER

@<TRIPOS>ATOM
      1 CL          1.5189    4.6429   -1.3270 Cl      1  UNL1       -0.0223
      2 C           1.6517    2.9696   -0.7942 C.1     1  UNL1        0.0098
      3 C           1.7376    1.8276   -0.4345 C.1     1  UNL1       -0.0457
      4 C           1.8260    0.4640   -0.0039 C.ar    1  UNL1        0.0677
      5 C           0.7390   -0.1803    0.6041 C.ar    1  UNL1        0.1366
      6 O          -0.4199    0.5090    0.8320 O.3     1  UNL1       -0.4853
      7 C          -1.5451    0.2251   -0.0315 C.3     1  UNL1        0.1024
      8 C          -1.1879   -0.0749   -1.4973 C.3     1  UNL1       -0.0255
      9 C          -2.3855    1.5135    0.0018 C.3     1  UNL1       -0.0255
     10 C          -2.3885   -0.9132    0.5578 C.3     1  UNL1       -0.0255
     11 C           0.8782   -1.4848    1.0805 C.ar    1  UNL1       -0.0187
     12 C           2.0766   -2.1746    0.8899 C.ar    1  UNL1       -0.0582
     13 C           3.1457   -1.5528    0.2465 C.ar    1  UNL1       -0.0604
     14 C           3.0242   -0.2331   -0.1929 C.ar    1  UNL1       -0.0428
     15 H          -2.0908   -0.1934   -2.1069 H       1  UNL1        0.0268
     16 H          -0.6062   -0.9980   -1.5930 H       1  UNL1        0.0268
     17 H          -0.5902    0.7315   -1.9347 H       1  UNL1        0.0268
     18 H          -1.8070    2.3638   -0.3780 H       1  UNL1        0.0268
     19 H          -2.6706    1.7676    1.0295 H       1  UNL1        0.0268
     20 H          -3.2978    1.4220   -0.5971 H       1  UNL1        0.0268
     21 H          -1.8883   -1.8803    0.4489 H       1  UNL1        0.0268
     22 H          -2.5605   -0.7603    1.6291 H       1  UNL1        0.0268
     23 H          -3.3595   -0.9933    0.0568 H       1  UNL1        0.0268
     24 H           0.0673   -1.9644    1.6189 H       1  UNL1        0.0654
     25 H           2.1801   -3.1932    1.2557 H       1  UNL1        0.0619
     26 H           4.0804   -2.0893    0.1024 H       1  UNL1        0.0618
     27 H           3.8722    0.2492   -0.6736 H       1  UNL1        0.0631
@<TRIPOS>BOND
     1    15     8    1
     2    17     8    1
     3    16     8    1
     4     8     7    1
     5     1     2    1
     6     2     3    3
     7    27    14    1
     8    20     9    1
     9     3     4    1
    10    18     9    1
    11    14     4   ar
    12    14    13   ar
    13     7     9    1
    14     7    10    1
    15     7     6    1
    16     4     5   ar
    17     9    19    1
    18    23    10    1
    19    26    13    1
    20    13    12   ar
    21    21    10    1
    22    10    22    1
    23     5     6    1
    24     5    11   ar
    25    12    11   ar
    26    12    25    1
    27    11    24    1
