@<TRIPOS>MOLECULE
ClC#Cc1ccc(OCC)cc1
 21 21 0 0 0
SMALL
GASTEIGER

@<TRIPOS>ATOM
      1 CL          6.6181    0.2938   -0.1070 Cl      1  UNL1       -0.0223
      2 C           4.8612    0.2291   -0.2124 C.1     1  UNL1        0.0097
      3 C           3.6635    0.1845   -0.2839 C.1     1  UNL1       -0.0493
      4 C           2.2373    0.1312   -0.3688 C.ar    1  UNL1        0.0263
      5 C           1.5168   -0.7290    0.4617 C.ar    1  UNL1       -0.0428
      6 C           0.1196   -0.7840    0.3819 C.ar    1  UNL1       -0.0188
      7 C          -0.5636    0.0190   -0.5312 C.ar    1  UNL1        0.1206
      8 O          -1.9163    0.0723   -0.7130 O.3     1  UNL1       -0.4922
      9 C          -2.7440   -0.8596   -0.0191 C.3     1  UNL1        0.0868
     10 C          -3.1599   -0.3087    1.3337 C.3     1  UNL1       -0.0307
     11 C           0.1643    0.8821   -1.3559 C.ar    1  UNL1       -0.0188
     12 C           1.5585    0.9397   -1.2794 C.ar    1  UNL1       -0.0428
     13 H           2.0339   -1.3616    1.1798 H       1  UNL1        0.0631
     14 H          -0.3990   -1.4586    1.0542 H       1  UNL1        0.0654
     15 H          -2.2891   -1.8535    0.0550 H       1  UNL1        0.0694
     16 H          -3.6445   -0.9878   -0.6307 H       1  UNL1        0.0694
     17 H          -2.2954   -0.1513    1.9854 H       1  UNL1        0.0262
     18 H          -3.6496    0.6638    1.2168 H       1  UNL1        0.0262
     19 H          -3.8521   -0.9927    1.8331 H       1  UNL1        0.0262
     20 H          -0.3610    1.5157   -2.0669 H       1  UNL1        0.0654
     21 H           2.1015    1.6178   -1.9331 H       1  UNL1        0.0631
@<TRIPOS>BOND
     1    20    11    1
     2    21    12    1
     3    11    12   ar
     4    11     7   ar
     5    12     4   ar
     6     8     7    1
     7     8     9    1
     8    16     9    1
     9     7     6   ar
    10     4     3    1
    11     4     5   ar
    12     3     2    3
    13     2     1    1
    14     9    15    1
    15     9    10    1
    16     6     5   ar
    17     6    14    1
    18     5    13    1
    19    18    10    1
    20    10    19    1
    21    10    17    1
