@<TRIPOS>MOLECULE
ClC#Cc1ccc(C(C)(C)C)cc1
 26 26 0 0 0
SMALL
GASTEIGER

@<TRIPOS>ATOM
      1 CL          6.9148    0.8739   -1.3551 Cl      1  UNL1       -0.0223
      2 C           5.1984    0.6572   -1.0248 C.1     1  UNL1        0.0097
      3 C           4.0283    0.5095   -0.7997 C.1     1  UNL1       -0.0493
      4 C           2.6351    0.3337   -0.5315 C.ar    1  UNL1        0.0261
      5 C           2.0661    0.8841    0.6135 C.ar    1  UNL1       -0.0460
      6 C           0.7021    0.7095    0.8719 C.ar    1  UNL1       -0.0569
      7 C          -0.1279   -0.0180   -0.0045 C.ar    1  UNL1       -0.0419
      8 C          -1.6241   -0.1889    0.3134 C.3     1  UNL1       -0.0127
      9 C          -2.2988    1.1974    0.3964 C.3     1  UNL1       -0.0560
     10 C          -1.7877   -0.9153    1.6660 C.3     1  UNL1       -0.0560
     11 C          -2.3975   -1.0106   -0.7426 C.3     1  UNL1       -0.0560
     12 C           0.4712   -0.5631   -1.1527 C.ar    1  UNL1       -0.0569
     13 C           1.8365   -0.3899   -1.4140 C.ar    1  UNL1       -0.0460
     14 H           2.6729    1.4522    1.3145 H       1  UNL1        0.0630
     15 H           0.2942    1.1548    1.7771 H       1  UNL1        0.0621
     16 H          -3.3742    1.1029    0.5876 H       1  UNL1        0.0238
     17 H          -2.1742    1.7534   -0.5404 H       1  UNL1        0.0238
     18 H          -1.8837    1.8131    1.2018 H       1  UNL1        0.0238
     19 H          -1.2920   -1.8932    1.6510 H       1  UNL1        0.0238
     20 H          -2.8458   -1.0812    1.9002 H       1  UNL1        0.0238
     21 H          -1.3619   -0.3436    2.4979 H       1  UNL1        0.0238
     22 H          -3.4562   -1.1044   -0.4725 H       1  UNL1        0.0238
     23 H          -2.3583   -0.5369   -1.7305 H       1  UNL1        0.0238
     24 H          -1.9978   -2.0272   -0.8349 H       1  UNL1        0.0238
     25 H          -0.1041   -1.1362   -1.8747 H       1  UNL1        0.0621
     26 H           2.2647   -0.8267   -2.3134 H       1  UNL1        0.0630
@<TRIPOS>BOND
     1    26    13    1
     2    25    12    1
     3    23    11    1
     4    13    12   ar
     5    13     4   ar
     6     1     2    1
     7    12     7   ar
     8     2     3    3
     9    24    11    1
    10     3     4    1
    11    11    22    1
    12    11     8    1
    13    17     9    1
    14     4     5   ar
    15     7     8    1
    16     7     6   ar
    17     8     9    1
    18     8    10    1
    19     9    16    1
    20     9    18    1
    21     5     6   ar
    22     5    14    1
    23     6    15    1
    24    19    10    1
    25    10    20    1
    26    10    21    1
