@<TRIPOS>MOLECULE
ClC#Cc1ccc(Br)cc1
 14 14 0 0 0
SMALL
GASTEIGER

@<TRIPOS>ATOM
      1 CL         -5.1070   -0.0142   -0.3774 Cl      1  UNL1       -0.0223
      2 C          -3.3506   -0.0093   -0.2484 C.1     1  UNL1        0.0097
      3 C          -2.1532   -0.0060   -0.1604 C.1     1  UNL1       -0.0493
      4 C          -0.7271   -0.0020   -0.0556 C.ar    1  UNL1        0.0262
      5 C          -0.0250   -1.2099   -0.0142 C.ar    1  UNL1       -0.0452
      6 C           1.3686   -1.2068    0.0882 C.ar    1  UNL1       -0.0466
      7 C           2.0543    0.0057    0.1488 C.ar    1  UNL1        0.0180
      8 BR          3.9394    0.0110    0.2874 Br      1  UNL1       -0.0503
      9 C           1.3604    1.2144    0.1081 C.ar    1  UNL1       -0.0466
     10 C          -0.0332    1.2098    0.0057 C.ar    1  UNL1       -0.0452
     11 H          -0.5550   -2.1587   -0.0612 H       1  UNL1        0.0630
     12 H           1.9063   -2.1508    0.1197 H       1  UNL1        0.0629
     13 H           1.8917    2.1614    0.1552 H       1  UNL1        0.0629
     14 H          -0.5696    2.1556   -0.0257 H       1  UNL1        0.0630
@<TRIPOS>BOND
     1     1     2    1
     2     2     3    3
     3     3     4    1
     4    11     5    1
     5     4     5   ar
     6     4    10   ar
     7    14    10    1
     8     5     6   ar
     9    10     9   ar
    10     6    12    1
    11     6     7   ar
    12     9     7   ar
    13     9    13    1
    14     7     8    1
