@<TRIPOS>MOLECULE
ClC#Cc1ccc(c2ccccc2)cc1
 24 25 0 0 0
SMALL
GASTEIGER

@<TRIPOS>ATOM
      1 CL          7.3159   -0.4529    0.4403 Cl      1  UNL1       -0.0223
      2 C           5.5623   -0.3443    0.3160 C.1     1  UNL1        0.0097
      3 C           4.3670   -0.2703    0.2313 C.1     1  UNL1       -0.0493
      4 C           2.9434   -0.1822    0.1304 C.ar    1  UNL1        0.0261
      5 C           2.2098    0.4672    1.1230 C.ar    1  UNL1       -0.0457
      6 C           0.8168    0.5519    1.0229 C.ar    1  UNL1       -0.0529
      7 C           0.1324   -0.0082   -0.0687 C.ar    1  UNL1       -0.0178
      8 C          -1.3333    0.0825   -0.1726 C.ar    1  UNL1       -0.0179
      9 C          -1.9465    0.6102   -1.3213 C.ar    1  UNL1       -0.0540
     10 C          -3.3379    0.6972   -1.4204 C.ar    1  UNL1       -0.0612
     11 C          -4.1405    0.2563   -0.3714 C.ar    1  UNL1       -0.0617
     12 C          -3.5534   -0.2706    0.7760 C.ar    1  UNL1       -0.0612
     13 C          -2.1618   -0.3559    0.8740 C.ar    1  UNL1       -0.0540
     14 C           0.8894   -0.6575   -1.0582 C.ar    1  UNL1       -0.0529
     15 C           2.2824   -0.7453   -0.9609 C.ar    1  UNL1       -0.0457
     16 H           2.7108    0.9141    1.9785 H       1  UNL1        0.0630
     17 H           0.2651    1.0733    1.8031 H       1  UNL1        0.0624
     18 H          -1.3382    0.9712   -2.1482 H       1  UNL1        0.0624
     19 H          -3.7925    1.1119   -2.3162 H       1  UNL1        0.0618
     20 H          -5.2225    0.3232   -0.4481 H       1  UNL1        0.0618
     21 H          -4.1768   -0.6187    1.5954 H       1  UNL1        0.0618
     22 H          -1.7246   -0.7816    1.7750 H       1  UNL1        0.0624
     23 H           0.3929   -1.1140   -1.9126 H       1  UNL1        0.0624
     24 H           2.8399   -1.2577   -1.7414 H       1  UNL1        0.0630
@<TRIPOS>BOND
     1    19    10    1
     2    18     9    1
     3    23    14    1
     4    24    15    1
     5    10     9   ar
     6    10    11   ar
     7     9     8   ar
     8    14    15   ar
     9    14     7   ar
    10    15     4   ar
    11    20    11    1
    12    11    12   ar
    13     8     7    1
    14     8    13   ar
    15     7     6   ar
    16     4     3    1
    17     4     5   ar
    18     3     2    3
    19     2     1    1
    20    12    13   ar
    21    12    21    1
    22    13    22    1
    23     6     5   ar
    24     6    17    1
    25     5    16    1
