@<TRIPOS>MOLECULE
ClC#Cc1c(OC(C)C)cccc1
 24 24 0 0 0
SMALL
GASTEIGER

@<TRIPOS>ATOM
      1 CL         -0.8749    3.7322   -3.5962 Cl      1  UNL1       -0.0223
      2 C          -1.1925    2.4789   -2.3999 C.1     1  UNL1        0.0098
      3 C          -1.4106    1.6243   -1.5855 C.1     1  UNL1       -0.0457
      4 C          -1.6628    0.6019   -0.6117 C.ar    1  UNL1        0.0677
      5 C          -0.6072   -0.0259    0.0743 C.ar    1  UNL1        0.1362
      6 O           0.6569    0.4094   -0.2266 O.3     1  UNL1       -0.4881
      7 C           1.7805   -0.4014    0.1298 C.3     1  UNL1        0.0947
      8 C           2.8102   -0.2397   -0.9863 C.3     1  UNL1       -0.0281
      9 C           2.3621    0.0873    1.4525 C.3     1  UNL1       -0.0281
     10 C          -0.9062   -1.0077    1.0242 C.ar    1  UNL1       -0.0187
     11 C          -2.2329   -1.3740    1.2730 C.ar    1  UNL1       -0.0582
     12 C          -3.2730   -0.7586    0.5815 C.ar    1  UNL1       -0.0604
     13 C          -2.9891    0.2305   -0.3585 C.ar    1  UNL1       -0.0428
     14 H           1.5222   -1.4654    0.1821 H       1  UNL1        0.0727
     15 H           3.0926    0.8114   -1.1138 H       1  UNL1        0.0265
     16 H           2.3890   -0.5697   -1.9423 H       1  UNL1        0.0265
     17 H           3.7127   -0.8244   -0.7831 H       1  UNL1        0.0265
     18 H           2.6354    1.1467    1.3917 H       1  UNL1        0.0265
     19 H           1.6306    0.0022    2.2619 H       1  UNL1        0.0265
     20 H           3.2511   -0.4876    1.7297 H       1  UNL1        0.0265
     21 H          -0.1312   -1.4989    1.6026 H       1  UNL1        0.0654
     22 H          -2.4531   -2.1387    2.0142 H       1  UNL1        0.0619
     23 H          -4.3033   -1.0440    0.7776 H       1  UNL1        0.0618
     24 H          -3.8064    0.7112   -0.8913 H       1  UNL1        0.0631
@<TRIPOS>BOND
     1     1     2    1
     2     2     3    3
     3    16     8    1
     4     3     4    1
     5    15     8    1
     6     8    17    1
     7     8     7    1
     8    24    13    1
     9     4    13   ar
    10     4     5   ar
    11    13    12   ar
    12     6     5    1
    13     6     7    1
    14     5    10   ar
    15     7    14    1
    16     7     9    1
    17    12    23    1
    18    12    11   ar
    19    10    11   ar
    20    10    21    1
    21    11    22    1
    22    18     9    1
    23     9    20    1
    24     9    19    1
