@<TRIPOS>MOLECULE
ClC#Cc1cc(Cl)ccc1
 14 14 0 0 0
SMALL
GASTEIGER

@<TRIPOS>ATOM
      1 CL          4.1356   -0.9056   -2.8203 Cl      1  UNL1       -0.0223
      2 C           2.7022   -0.5823   -1.8495 C.1     1  UNL1        0.0097
      3 C           1.7249   -0.3616   -1.1879 C.1     1  UNL1       -0.0493
      4 C           0.5607   -0.0983   -0.4001 C.ar    1  UNL1        0.0275
      5 C           0.1654   -1.0036    0.5871 C.ar    1  UNL1       -0.0279
      6 C          -0.9712   -0.7376    1.3499 C.ar    1  UNL1        0.0421
      7 CL         -1.4614   -1.8510    2.5673 Cl      1  UNL1       -0.0835
      8 C          -1.7149    0.4224    1.1356 C.ar    1  UNL1       -0.0433
      9 C          -1.3194    1.3263    0.1492 C.ar    1  UNL1       -0.0592
     10 C          -0.1820    1.0661   -0.6184 C.ar    1  UNL1       -0.0462
     11 H           0.7377   -1.9109    0.7627 H       1  UNL1        0.0644
     12 H          -2.6005    0.6270    1.7318 H       1  UNL1        0.0632
     13 H          -1.8959    2.2322   -0.0218 H       1  UNL1        0.0618
     14 H           0.1188    1.7768   -1.3854 H       1  UNL1        0.0630
@<TRIPOS>BOND
     1     1     2    1
     2     2     3    3
     3    14    10    1
     4     3     4    1
     5    10     4   ar
     6    10     9   ar
     7     4     5   ar
     8    13     9    1
     9     9     8   ar
    10     5    11    1
    11     5     6   ar
    12     8     6   ar
    13     8    12    1
    14     6     7    1
