@<TRIPOS>MOLECULE
ClC#Cc1cc([Si](C)(C(C)(C)C)C)ccc1
 35 35 0 0 0
SMALL
GASTEIGER

@<TRIPOS>ATOM
      1 CL          6.6189   -0.1751    2.6642 Cl      1  UNL1        0.0000
      2 C           5.1661   -0.6142    1.7706 C.1     1  UNL1        0.0000
      3 C           4.1755   -0.9129    1.1615 C.1     1  UNL1        0.0000
      4 C           2.9949   -1.2678    0.4363 C.ar    1  UNL1        0.0000
      5 C           2.0063   -0.3066    0.1963 C.ar    1  UNL1        0.0000
      6 C           0.8376   -0.6394   -0.5140 C.ar    1  UNL1        0.0000
      7 SI         -0.5120    0.6688   -0.8360 Si      1  UNL1        0.0000
      8 C           0.2188    2.3940   -0.9419 C.3     1  UNL1        0.0000
      9 C          -1.8237    0.6230    0.7716 C.3     1  UNL1        0.0000
     10 C          -2.4490   -0.7829    0.8787 C.3     1  UNL1        0.0000
     11 C          -1.0547    0.9538    2.0671 C.3     1  UNL1        0.0000
     12 C          -2.9318    1.6713    0.5400 C.3     1  UNL1        0.0000
     13 C          -1.4862    0.2805   -2.3923 C.3     1  UNL1        0.0000
     14 C           0.6865   -1.9584   -0.9754 C.ar    1  UNL1        0.0000
     15 C           1.6754   -2.9154   -0.7345 C.ar    1  UNL1        0.0000
     16 C           2.8282   -2.5715   -0.0302 C.ar    1  UNL1        0.0000
     17 H           2.1559    0.7040    0.5733 H       1  UNL1        0.0000
     18 H           0.9612    2.4473   -1.7440 H       1  UNL1        0.0000
     19 H          -0.5616    3.1306   -1.1543 H       1  UNL1        0.0000
     20 H           0.7073    2.6778   -0.0055 H       1  UNL1        0.0000
     21 H          -3.1576   -0.8288    1.7136 H       1  UNL1        0.0000
     22 H          -2.9956   -1.0527   -0.0316 H       1  UNL1        0.0000
     23 H          -1.6884   -1.5519    1.0522 H       1  UNL1        0.0000
     24 H          -0.5875    1.9435    2.0184 H       1  UNL1        0.0000
     25 H          -0.2657    0.2209    2.2677 H       1  UNL1        0.0000
     26 H          -1.7308    0.9512    2.9298 H       1  UNL1        0.0000
     27 H          -2.5192    2.6830    0.4572 H       1  UNL1        0.0000
     28 H          -3.6439    1.6735    1.3733 H       1  UNL1        0.0000
     29 H          -3.4974    1.4652   -0.3754 H       1  UNL1        0.0000
     30 H          -2.2372    1.0536   -2.5796 H       1  UNL1        0.0000
     31 H          -0.8213    0.2381   -3.2602 H       1  UNL1        0.0000
     32 H          -2.0016   -0.6804   -2.3098 H       1  UNL1        0.0000
     33 H          -0.2019   -2.2642   -1.5253 H       1  UNL1        0.0000
     34 H           1.5447   -3.9321   -1.0968 H       1  UNL1        0.0000
     35 H           3.5898   -3.3258    0.1511 H       1  UNL1        0.0000
@<TRIPOS>BOND
     1    31    13    1
     2    30    13    1
     3    13    32    1
     4    13     7    1
     5    18     8    1
     6    33    14    1
     7    19     8    1
     8    34    15    1
     9    14    15   ar
    10    14     6   ar
    11     8     7    1
    12     8    20    1
    13     7     6    1
    14     7     9    1
    15    15    16   ar
    16     6     5   ar
    17    29    12    1
    18    22    10    1
    19    16    35    1
    20    16     4   ar
    21     5     4   ar
    22     5    17    1
    23     4     3    1
    24    27    12    1
    25    12     9    1
    26    12    28    1
    27     9    10    1
    28     9    11    1
    29    10    23    1
    30    10    21    1
    31     3     2    3
    32     2     1    1
    33    24    11    1
    34    11    25    1
    35    11    26    1
