@<TRIPOS>MOLECULE
ClC#Cc1ccc(C(F)(F)F)cc1
 17 17 0 0 0
SMALL
GASTEIGER

@<TRIPOS>ATOM
      1 CL          5.7579   -0.8465    0.5520 Cl      1  UNL1       -0.0223
      2 C           4.0178   -0.5910    0.4612 C.1     1  UNL1        0.0097
      3 C           2.8314   -0.4169    0.3994 C.1     1  UNL1       -0.0493
      4 C           1.4185   -0.2094    0.3258 C.ar    1  UNL1        0.0261
      5 C           0.5639   -1.2888    0.0942 C.ar    1  UNL1       -0.0458
      6 C          -0.8174   -1.0865    0.0219 C.ar    1  UNL1       -0.0490
      7 C          -1.3603    0.1975    0.1870 C.ar    1  UNL1        0.0549
      8 C          -2.8503    0.4201    0.0862 C.3     1  UNL1        0.4174
      9 F          -3.2482    0.6847   -1.1884 F       1  UNL1       -0.1659
     10 F          -3.5800   -0.6569    0.4908 F       1  UNL1       -0.1659
     11 F          -3.2863    1.4678    0.8401 F       1  UNL1       -0.1659
     12 C          -0.4907    1.2767    0.4105 C.ar    1  UNL1       -0.0490
     13 C           0.8904    1.0734    0.4827 C.ar    1  UNL1       -0.0458
     14 H           0.9646   -2.2924   -0.0329 H       1  UNL1        0.0630
     15 H          -1.4712   -1.9382   -0.1629 H       1  UNL1        0.0623
     16 H          -0.8874    2.2841    0.5316 H       1  UNL1        0.0623
     17 H           1.5473    1.9225    0.6604 H       1  UNL1        0.0630
@<TRIPOS>BOND
     1     9     8    1
     2    15     6    1
     3    14     5    1
     4     6     5   ar
     5     6     7   ar
     6     8     7    1
     7     8    10    1
     8     8    11    1
     9     5     4   ar
    10     7    12   ar
    11     4     3    1
    12     4    13   ar
    13     3     2    3
    14    12    13   ar
    15    12    16    1
    16     2     1    1
    17    13    17    1
