@<TRIPOS>MOLECULE
ClC#Cc1ccc(OC(C)C)cc1
 24 24 0 0 0
SMALL
GASTEIGER

@<TRIPOS>ATOM
      1 CL          7.1658   -0.0384   -0.6033 Cl      1  UNL1       -0.0223
      2 C           5.4053   -0.0776   -0.5697 C.1     1  UNL1        0.0097
      3 C           4.2052   -0.1041   -0.5463 C.1     1  UNL1       -0.0493
      4 C           2.7761   -0.1355   -0.5182 C.ar    1  UNL1        0.0263
      5 C           2.0880    0.2675    0.6275 C.ar    1  UNL1       -0.0428
      6 C           0.6880    0.2381    0.6593 C.ar    1  UNL1       -0.0188
      7 C          -0.0305   -0.1916   -0.4559 C.ar    1  UNL1        0.1210
      8 O          -1.3892   -0.2772   -0.5646 O.3     1  UNL1       -0.4894
      9 C          -2.2112    0.2528    0.4802 C.3     1  UNL1        0.0946
     10 C          -2.4728   -0.8220    1.5313 C.3     1  UNL1       -0.0281
     11 C          -3.5267    0.6768   -0.1698 C.3     1  UNL1       -0.0281
     12 C           0.6657   -0.5998   -1.5976 C.ar    1  UNL1       -0.0188
     13 C           2.0624   -0.5716   -1.6335 C.ar    1  UNL1       -0.0428
     14 H           2.6330    0.6050    1.5064 H       1  UNL1        0.0631
     15 H           0.1972    0.5486    1.5750 H       1  UNL1        0.0654
     16 H          -1.7698    1.1488    0.9312 H       1  UNL1        0.0727
     17 H          -2.9201   -1.7128    1.0762 H       1  UNL1        0.0265
     18 H          -1.5419   -1.1494    2.0044 H       1  UNL1        0.0265
     19 H          -3.1440   -0.4544    2.3136 H       1  UNL1        0.0265
     20 H          -4.0103   -0.1693   -0.6707 H       1  UNL1        0.0265
     21 H          -4.2200    1.0916    0.5683 H       1  UNL1        0.0265
     22 H          -3.3432    1.4343   -0.9397 H       1  UNL1        0.0265
     23 H           0.1131   -0.9419   -2.4697 H       1  UNL1        0.0654
     24 H           2.5799   -0.8920   -2.5343 H       1  UNL1        0.0631
@<TRIPOS>BOND
     1    24    13    1
     2    23    12    1
     3    13    12   ar
     4    13     4   ar
     5    12     7   ar
     6    22    11    1
     7    20    11    1
     8     1     2    1
     9     2     3    3
    10     8     7    1
    11     8     9    1
    12     3     4    1
    13     4     5   ar
    14     7     6   ar
    15    11     9    1
    16    11    21    1
    17     9    16    1
    18     9    10    1
    19     5     6   ar
    20     5    14    1
    21     6    15    1
    22    17    10    1
    23    10    18    1
    24    10    19    1
