@<TRIPOS>MOLECULE
ClC#Cc1c(C(c2ccccc2))cccc1
 27 28 0 0 0
SMALL
GASTEIGER

@<TRIPOS>ATOM
      1 CL         -0.8583    4.5432    0.5714 Cl      1  UNL1       -0.0223
      2 C          -1.2868    2.8419    0.4198 C.1     1  UNL1        0.0097
      3 C          -1.5701    1.6804    0.3094 C.1     1  UNL1       -0.0490
      4 C          -1.9031    0.2925    0.1798 C.ar    1  UNL1        0.0296
      5 C          -1.1844   -0.5677   -0.6720 C.ar    1  UNL1       -0.0277
      6 C          -0.0047   -0.0958   -1.5004 C.3     1  UNL1       -0.0013
      7 C           1.2621    0.1622   -0.7135 C.ar    1  UNL1       -0.0430
      8 C           1.8959    1.4117   -0.7854 C.ar    1  UNL1       -0.0583
      9 C           3.0719    1.6548   -0.0734 C.ar    1  UNL1       -0.0615
     10 C           3.6333    0.6499    0.7110 C.ar    1  UNL1       -0.0617
     11 C           3.0210   -0.5994    0.7824 C.ar    1  UNL1       -0.0615
     12 C           1.8443   -0.8438    0.0718 C.ar    1  UNL1       -0.0583
     13 C          -1.5743   -1.9178   -0.7515 C.ar    1  UNL1       -0.0571
     14 C          -2.6492   -2.3996   -0.0031 C.ar    1  UNL1       -0.0614
     15 C          -3.3522   -1.5414    0.8366 C.ar    1  UNL1       -0.0606
     16 C          -2.9807   -0.2002    0.9277 C.ar    1  UNL1       -0.0460
     17 H           0.2299   -0.8357   -2.2776 H       1  UNL1        0.0362
     18 H          -0.3067    0.8027   -2.0545 H       1  UNL1        0.0362
     19 H           1.4746    2.2096   -1.3930 H       1  UNL1        0.0620
     20 H           3.5488    2.6297   -0.1309 H       1  UNL1        0.0618
     21 H           4.5478    0.8401    1.2662 H       1  UNL1        0.0618
     22 H           3.4584   -1.3847    1.3931 H       1  UNL1        0.0618
     23 H           1.3820   -1.8257    0.1408 H       1  UNL1        0.0620
     24 H          -1.0362   -2.6067   -1.3998 H       1  UNL1        0.0621
     25 H          -2.9363   -3.4457   -0.0755 H       1  UNL1        0.0618
     26 H          -4.1888   -1.9147    1.4214 H       1  UNL1        0.0618
     27 H          -3.5382    0.4603    1.5885 H       1  UNL1        0.0630
@<TRIPOS>BOND
     1    17     6    1
     2    18     6    1
     3     6     7    1
     4     6     5    1
     5    24    13    1
     6    19     8    1
     7     8     7   ar
     8     8     9   ar
     9    13     5   ar
    10    13    14   ar
    11     7    12   ar
    12     5     4   ar
    13    20     9    1
    14    25    14    1
    15     9    10   ar
    16    14    15   ar
    17    12    23    1
    18    12    11   ar
    19     4     3    1
    20     4    16   ar
    21     3     2    3
    22     2     1    1
    23    10    11   ar
    24    10    21    1
    25    11    22    1
    26    15    16   ar
    27    15    26    1
    28    16    27    1
