@<TRIPOS>MOLECULE
ClC#Cc1cc(Br)ccc1
 14 14 0 0 0
SMALL
GASTEIGER

@<TRIPOS>ATOM
      1 CL          5.0747   -0.4086   -0.1413 Cl      1  UNL1       -0.0223
      2 C           3.3210   -0.2528   -0.0965 C.1     1  UNL1        0.0097
      3 C           2.1255   -0.1463   -0.0660 C.1     1  UNL1       -0.0493
      4 C           0.7014   -0.0192   -0.0297 C.ar    1  UNL1        0.0271
      5 C          -0.0900   -1.1188    0.3102 C.ar    1  UNL1       -0.0323
      6 C          -1.4779   -0.9839    0.3425 C.ar    1  UNL1        0.0190
      7 BR         -2.5528   -2.4701    0.8022 Br      1  UNL1       -0.0503
      8 C          -2.0811    0.2363    0.0392 C.ar    1  UNL1       -0.0477
      9 C          -1.2889    1.3334   -0.3001 C.ar    1  UNL1       -0.0596
     10 C           0.1014    1.2061   -0.3346 C.ar    1  UNL1       -0.0462
     11 H           0.3729   -2.0733    0.5480 H       1  UNL1        0.0641
     12 H          -3.1627    0.3422    0.0642 H       1  UNL1        0.0629
     13 H          -1.7536    2.2873   -0.5376 H       1  UNL1        0.0618
     14 H           0.7102    2.0678   -0.6004 H       1  UNL1        0.0630
@<TRIPOS>BOND
     1    14    10    1
     2    13     9    1
     3    10     9   ar
     4    10     4   ar
     5     9     8   ar
     6     1     2    1
     7     2     3    3
     8     3     4    1
     9     4     5   ar
    10     8    12    1
    11     8     6   ar
    12     5     6   ar
    13     5    11    1
    14     6     7    1
