@<TRIPOS>MOLECULE
ClC#Cc1ccc(CC(c2ccccc2))cc1
 30 31 0 0 0
SMALL
GASTEIGER

@<TRIPOS>ATOM
      1 CL          8.1347   -1.4084   -1.9002 Cl      1  UNL1       -0.0223
      2 C           6.4824   -1.0201   -1.4298 C.1     1  UNL1        0.0097
      3 C           5.3561   -0.7555   -1.1092 C.1     1  UNL1       -0.0493
      4 C           4.0145   -0.4404   -0.7273 C.ar    1  UNL1        0.0261
      5 C           3.2393    0.4025   -1.5255 C.ar    1  UNL1       -0.0460
      6 C           1.9284    0.7102   -1.1527 C.ar    1  UNL1       -0.0574
      7 C           1.3822    0.1811    0.0241 C.ar    1  UNL1       -0.0470
      8 C          -0.0406    0.4973    0.4164 C.3     1  UNL1       -0.0237
      9 C          -1.0270   -0.5143   -0.1734 C.3     1  UNL1       -0.0237
     10 C          -2.4488   -0.1974    0.2194 C.ar    1  UNL1       -0.0470
     11 C          -2.9952   -0.7257    1.3966 C.ar    1  UNL1       -0.0586
     12 C          -4.3041   -0.4162    1.7692 C.ar    1  UNL1       -0.0615
     13 C          -5.0765    0.4263    0.9718 C.ar    1  UNL1       -0.0617
     14 C          -4.5405    0.9613   -0.1981 C.ar    1  UNL1       -0.0615
     15 C          -3.2318    0.6531   -0.5726 C.ar    1  UNL1       -0.0586
     16 C           2.1650   -0.6687    0.8167 C.ar    1  UNL1       -0.0574
     17 C           3.4759   -0.9763    0.4437 C.ar    1  UNL1       -0.0460
     18 H           3.6469    0.8248   -2.4410 H       1  UNL1        0.0630
     19 H           1.3362    1.3666   -1.7869 H       1  UNL1        0.0621
     20 H          -0.1190    0.5167    1.5115 H       1  UNL1        0.0316
     21 H          -0.2903    1.5144    0.0865 H       1  UNL1        0.0316
     22 H          -0.7773   -1.5314    0.1565 H       1  UNL1        0.0316
     23 H          -0.9485   -0.5336   -1.2684 H       1  UNL1        0.0316
     24 H          -2.4041   -1.3827    2.0305 H       1  UNL1        0.0620
     25 H          -4.7213   -0.8324    2.6824 H       1  UNL1        0.0618
     26 H          -6.0956    0.6666    1.2625 H       1  UNL1        0.0618
     27 H          -5.1421    1.6196   -0.8194 H       1  UNL1        0.0618
     28 H          -2.8267    1.0804   -1.4870 H       1  UNL1        0.0620
     29 H           1.7588   -1.0965    1.7308 H       1  UNL1        0.0621
     30 H           4.0691   -1.6356    1.0729 H       1  UNL1        0.0630
@<TRIPOS>BOND
     1    18     5    1
     2     1     2    1
     3    19     6    1
     4     5     6   ar
     5     5     4   ar
     6    28    15    1
     7     2     3    3
     8    23     9    1
     9     6     7   ar
    10     3     4    1
    11    27    14    1
    12     4    17   ar
    13    15    14   ar
    14    15    10   ar
    15    14    13   ar
    16     9    22    1
    17     9    10    1
    18     9     8    1
    19     7     8    1
    20     7    16   ar
    21    21     8    1
    22    10    11   ar
    23     8    20    1
    24    17    16   ar
    25    17    30    1
    26    16    29    1
    27    13    26    1
    28    13    12   ar
    29    11    12   ar
    30    11    24    1
    31    12    25    1
