@<TRIPOS>MOLECULE
ClC#Cc1cc(C)ccc1
 17 17 0 0 0
SMALL
GASTEIGER

@<TRIPOS>ATOM
      1 CL          5.4990    0.2534    0.6568 Cl      1  UNL1       -0.0223
      2 C           3.7602    0.0052    0.5252 C.1     1  UNL1        0.0097
      3 C           2.5750   -0.1639    0.4355 C.1     1  UNL1       -0.0493
      4 C           1.1630   -0.3651    0.3286 C.ar    1  UNL1        0.0263
      5 C           0.3036    0.7347    0.2464 C.ar    1  UNL1       -0.0434
      6 C          -1.0812    0.5473    0.1343 C.ar    1  UNL1       -0.0493
      7 C          -2.0049    1.7281    0.0804 C.3     1  UNL1       -0.0397
      8 C          -1.5944   -0.7556    0.1309 C.ar    1  UNL1       -0.0588
      9 C          -0.7369   -1.8540    0.2128 C.ar    1  UNL1       -0.0604
     10 C           0.6412   -1.6597    0.3093 C.ar    1  UNL1       -0.0463
     11 H           0.7121    1.7431    0.2690 H       1  UNL1        0.0632
     12 H          -1.5250    2.5765   -0.4188 H       1  UNL1        0.0278
     13 H          -2.9116    1.4896   -0.4854 H       1  UNL1        0.0278
     14 H          -2.2887    2.0275    1.0939 H       1  UNL1        0.0278
     15 H          -2.6673   -0.9228    0.0635 H       1  UNL1        0.0620
     16 H          -1.1439   -2.8619    0.2041 H       1  UNL1        0.0618
     17 H           1.2999   -2.5224    0.3733 H       1  UNL1        0.0630
@<TRIPOS>BOND
     1    13     7    1
     2    12     7    1
     3    15     8    1
     4     7     6    1
     5     7    14    1
     6     8     6   ar
     7     8     9   ar
     8     6     5   ar
     9    16     9    1
    10     9    10   ar
    11     5    11    1
    12     5     4   ar
    13    10     4   ar
    14    10    17    1
    15     4     3    1
    16     3     2    3
    17     2     1    1
