@<TRIPOS>MOLECULE
ClC#Cc1c(C(F)(F)F)cccc1
 17 17 0 0 0
SMALL
GASTEIGER

@<TRIPOS>ATOM
      1 CL          4.9242   -0.0600    0.6035 Cl      1  UNL1       -0.0223
      2 C           3.1739   -0.2164    0.4906 C.1     1  UNL1        0.0097
      3 C           1.9804   -0.3242    0.4137 C.1     1  UNL1       -0.0488
      4 C           0.5563   -0.4593    0.3225 C.ar    1  UNL1        0.0377
      5 C          -0.2848    0.6562    0.1702 C.ar    1  UNL1        0.0702
      6 C           0.2733    2.0555    0.0952 C.3     1  UNL1        0.4185
      7 F           0.9678    2.4101    1.2119 F       1  UNL1       -0.1659
      8 F          -0.6885    3.0125   -0.0526 F       1  UNL1       -0.1659
      9 F           1.1235    2.2319   -0.9542 F       1  UNL1       -0.1659
     10 C          -1.6751    0.4493    0.0873 C.ar    1  UNL1       -0.0489
     11 C          -2.2131   -0.8366    0.1545 C.ar    1  UNL1       -0.0612
     12 C          -1.3716   -1.9344    0.3053 C.ar    1  UNL1       -0.0606
     13 C           0.0081   -1.7472    0.3890 C.ar    1  UNL1       -0.0457
     14 H          -2.3504    1.2965   -0.0309 H       1  UNL1        0.0623
     15 H          -3.2893   -0.9808    0.0890 H       1  UNL1        0.0618
     16 H          -1.7885   -2.9373    0.3578 H       1  UNL1        0.0618
     17 H           0.6538   -2.6157    0.5069 H       1  UNL1        0.0630
@<TRIPOS>BOND
     1     9     6    1
     2     8     6    1
     3    14    10    1
     4    10    11   ar
     5    10     5   ar
     6    15    11    1
     7     6     5    1
     8     6     7    1
     9    11    12   ar
    10     5     4   ar
    11    12    16    1
    12    12    13   ar
    13     4    13   ar
    14     4     3    1
    15    13    17    1
    16     3     2    3
    17     2     1    1
