@<TRIPOS>MOLECULE
ClC#Cc1c(F)cccc1
 14 14 0 0 0
SMALL
GASTEIGER

@<TRIPOS>ATOM
      1 CL          4.9268    0.7008   -0.9168 Cl      1  UNL1       -0.0223
      2 C           3.2121    0.4543   -0.5989 C.1     1  UNL1        0.0098
      3 C           2.0435    0.2830   -0.3837 C.1     1  UNL1       -0.0465
      4 C           0.6513    0.0813   -0.1262 C.ar    1  UNL1        0.0612
      5 C          -0.1069    1.0704    0.5020 C.ar    1  UNL1        0.1387
      6 F           0.4601    2.2279    0.8747 F       1  UNL1       -0.2042
      7 C          -1.4631    0.8790    0.7550 C.ar    1  UNL1       -0.0252
      8 C          -2.0744   -0.3160    0.3767 C.ar    1  UNL1       -0.0590
      9 C          -1.3255   -1.3123   -0.2524 C.ar    1  UNL1       -0.0604
     10 C           0.0357   -1.1155   -0.5043 C.ar    1  UNL1       -0.0435
     11 H          -2.0324    1.6627    1.2450 H       1  UNL1        0.0646
     12 H          -3.1328   -0.4713    0.5716 H       1  UNL1        0.0618
     13 H          -1.8020   -2.2445   -0.5476 H       1  UNL1        0.0618
     14 H           0.6076   -1.8998   -0.9951 H       1  UNL1        0.0631
@<TRIPOS>BOND
     1    14    10    1
     2     1     2    1
     3     2     3    3
     4    13     9    1
     5    10     9   ar
     6    10     4   ar
     7     3     4    1
     8     9     8   ar
     9     4     5   ar
    10     8    12    1
    11     8     7   ar
    12     5     7   ar
    13     5     6    1
    14     7    11    1
