@<TRIPOS>MOLECULE
ClC#Cc1c(c2ccccc2)cccc1
 24 25 0 0 0
SMALL
GASTEIGER

@<TRIPOS>ATOM
      1 CL         -0.4271    4.4380    1.7974 Cl      1  UNL1       -0.0223
      2 C          -0.9130    2.8656    1.1707 C.1     1  UNL1        0.0097
      3 C          -1.2431    1.7926    0.7448 C.1     1  UNL1       -0.0487
      4 C          -1.6281    0.5077    0.2352 C.ar    1  UNL1        0.0338
      5 C          -0.6683   -0.4430   -0.1699 C.ar    1  UNL1       -0.0025
      6 C           0.7791   -0.1937   -0.0868 C.ar    1  UNL1       -0.0167
      7 C           1.4507   -0.2567    1.1442 C.ar    1  UNL1       -0.0540
      8 C           2.8251   -0.0208    1.2210 C.ar    1  UNL1       -0.0612
      9 C           3.5466    0.2785    0.0673 C.ar    1  UNL1       -0.0617
     10 C           2.8959    0.3414   -1.1631 C.ar    1  UNL1       -0.0612
     11 C           1.5214    0.1056   -1.2397 C.ar    1  UNL1       -0.0540
     12 C          -1.1226   -1.6761   -0.6738 C.ar    1  UNL1       -0.0529
     13 C          -2.4868   -1.9589   -0.7696 C.ar    1  UNL1       -0.0611
     14 C          -3.4230   -1.0126   -0.3641 C.ar    1  UNL1       -0.0606
     15 C          -2.9960    0.2173    0.1363 C.ar    1  UNL1       -0.0457
     16 H           0.9010   -0.4905    2.0537 H       1  UNL1        0.0624
     17 H           3.3308   -0.0698    2.1817 H       1  UNL1        0.0618
     18 H           4.6159    0.4639    0.1273 H       1  UNL1        0.0618
     19 H           3.4569    0.5766   -2.0638 H       1  UNL1        0.0618
     20 H           1.0261    0.1634   -2.2069 H       1  UNL1        0.0624
     21 H          -0.4033   -2.4294   -0.9914 H       1  UNL1        0.0624
     22 H          -2.8156   -2.9189   -1.1598 H       1  UNL1        0.0618
     23 H          -4.4854   -1.2306   -0.4379 H       1  UNL1        0.0618
     24 H          -3.7373    0.9504    0.4472 H       1  UNL1        0.0630
@<TRIPOS>BOND
     1    20    11    1
     2    19    10    1
     3    11    10   ar
     4    11     6   ar
     5    10     9   ar
     6    22    13    1
     7    21    12    1
     8    13    12   ar
     9    13    14   ar
    10    12     5   ar
    11    23    14    1
    12    14    15   ar
    13     5     6    1
    14     5     4   ar
    15     6     7   ar
    16     9    18    1
    17     9     8   ar
    18    15     4   ar
    19    15    24    1
    20     4     3    1
    21     3     2    3
    22     7     8   ar
    23     7    16    1
    24     2     1    1
    25     8    17    1
