@<TRIPOS>MOLECULE
ClC#Cc1cc(C(F)(F)F)ccc1
 17 17 0 0 0
SMALL
GASTEIGER

@<TRIPOS>ATOM
      1 CL          5.3509   -1.4041    0.2557 Cl      1  UNL1       -0.0223
      2 C           3.6997   -0.7923    0.2817 C.1     1  UNL1        0.0097
      3 C           2.5740   -0.3750    0.2994 C.1     1  UNL1       -0.0493
      4 C           1.2336    0.1224    0.3206 C.ar    1  UNL1        0.0266
      5 C           0.1598   -0.7511    0.1280 C.ar    1  UNL1       -0.0347
      6 C          -1.1619   -0.2731    0.1469 C.ar    1  UNL1        0.0560
      7 C          -2.3085   -1.2307   -0.0626 C.3     1  UNL1        0.4175
      8 F          -3.5325   -0.6342   -0.0245 F       1  UNL1       -0.1659
      9 F          -2.2411   -1.8670   -1.2647 F       1  UNL1       -0.1659
     10 F          -2.3432   -2.2136    0.8792 F       1  UNL1       -0.1659
     11 C          -1.3858    1.0953    0.3624 C.ar    1  UNL1       -0.0500
     12 C          -0.3127    1.9670    0.5546 C.ar    1  UNL1       -0.0601
     13 C           0.9951    1.4813    0.5338 C.ar    1  UNL1       -0.0463
     14 H           0.3455   -1.8120   -0.0384 H       1  UNL1        0.0635
     15 H          -2.4010    1.4904    0.3816 H       1  UNL1        0.0623
     16 H          -0.4953    3.0263    0.7210 H       1  UNL1        0.0618
     17 H           1.8234    2.1702    0.6849 H       1  UNL1        0.0630
@<TRIPOS>BOND
     1     9     7    1
     2     7     8    1
     3     7     6    1
     4     7    10    1
     5    14     5    1
     6     5     6   ar
     7     5     4   ar
     8     6    11   ar
     9     1     2    1
    10     2     3    3
    11     3     4    1
    12     4    13   ar
    13    11    15    1
    14    11    12   ar
    15    13    12   ar
    16    13    17    1
    17    12    16    1
