@<TRIPOS>MOLECULE
ClC#Cc1cc(OC)ccc1
 18 18 0 0 0
SMALL
GASTEIGER

@<TRIPOS>ATOM
      1 CL          5.6867    1.5938   -0.3064 Cl      1  UNL1       -0.0223
      2 C           4.0495    0.9572   -0.1769 C.1     1  UNL1        0.0097
      3 C           2.9340    0.5222   -0.0883 C.1     1  UNL1       -0.0492
      4 C           1.6053    0.0039    0.0171 C.ar    1  UNL1        0.0296
      5 C           0.5074    0.8511   -0.1510 C.ar    1  UNL1       -0.0045
      6 C          -0.7961    0.3548   -0.0500 C.ar    1  UNL1        0.1213
      7 O          -1.7779    1.2890   -0.2357 O.3     1  UNL1       -0.4951
      8 C          -3.1230    0.8368   -0.1434 C.3     1  UNL1        0.0788
      9 C          -0.9936   -1.0002    0.2215 C.ar    1  UNL1       -0.0199
     10 C           0.1038   -1.8499    0.3902 C.ar    1  UNL1       -0.0571
     11 C           1.4020   -1.3495    0.2883 C.ar    1  UNL1       -0.0461
     12 H           0.6572    1.9075   -0.3627 H       1  UNL1        0.0666
     13 H          -3.3406    0.4468    0.8564 H       1  UNL1        0.0660
     14 H          -3.7773    1.6970   -0.3148 H       1  UNL1        0.0660
     15 H          -3.3429    0.0922   -0.9156 H       1  UNL1        0.0660
     16 H          -1.9871   -1.4275    0.3083 H       1  UNL1        0.0654
     17 H          -0.0549   -2.9046    0.6015 H       1  UNL1        0.0619
     18 H           2.2474   -2.0204    0.4215 H       1  UNL1        0.0630
@<TRIPOS>BOND
     1    15     8    1
     2    12     5    1
     3    14     8    1
     4     1     2    1
     5     7     8    1
     6     7     6    1
     7     2     3    3
     8     5     6   ar
     9     5     4   ar
    10     8    13    1
    11     3     4    1
    12     6     9   ar
    13     4    11   ar
    14     9    16    1
    15     9    10   ar
    16    11    10   ar
    17    11    18    1
    18    10    17    1
