@<TRIPOS>MOLECULE
ClC#Cc1c(Br)cccc1
 14 14 0 0 0
SMALL
GASTEIGER

@<TRIPOS>ATOM
      1 CL          4.9816    0.2884   -0.7902 Cl      1  UNL1       -0.0223
      2 C           3.2452    0.1880   -0.5147 C.1     1  UNL1        0.0097
      3 C           2.0612    0.1189   -0.3271 C.1     1  UNL1       -0.0482
      4 C           0.6479    0.0343   -0.1040 C.ar    1  UNL1        0.0400
      5 C          -0.0930    1.0958    0.4333 C.ar    1  UNL1        0.0333
      6 BR          0.7100    2.7494    0.9169 Br      1  UNL1       -0.0490
      7 C          -1.4715    0.9620    0.6314 C.ar    1  UNL1       -0.0466
      8 C          -2.1149   -0.2296    0.2947 C.ar    1  UNL1       -0.0606
      9 C          -1.3839   -1.2885   -0.2398 C.ar    1  UNL1       -0.0605
     10 C          -0.0078   -1.1575   -0.4386 C.ar    1  UNL1       -0.0452
     11 H          -2.0531    1.7810    1.0478 H       1  UNL1        0.0629
     12 H          -3.1865   -0.3312    0.4497 H       1  UNL1        0.0618
     13 H          -1.8846   -2.2175   -0.5025 H       1  UNL1        0.0618
     14 H           0.5493   -1.9936   -0.8570 H       1  UNL1        0.0630
@<TRIPOS>BOND
     1    14    10    1
     2     1     2    1
     3     2     3    3
     4    13     9    1
     5    10     9   ar
     6    10     4   ar
     7     3     4    1
     8     9     8   ar
     9     4     5   ar
    10     8    12    1
    11     8     7   ar
    12     5     7   ar
    13     5     6    1
    14     7    11    1
