@<TRIPOS>MOLECULE
ClC#Cc1c(OC(c2ccccc2))cccc1
 28 29 0 0 0
SMALL
GASTEIGER

@<TRIPOS>ATOM
      1 CL         -3.1564    3.7969    3.5793 Cl      1  UNL1       -0.0223
      2 C          -2.9314    2.6641    2.2498 C.1     1  UNL1        0.0098
      3 C          -2.7761    1.8891    1.3462 C.1     1  UNL1       -0.0457
      4 C          -2.5818    0.9648    0.2699 C.ar    1  UNL1        0.0677
      5 C          -1.3224    0.7796   -0.3136 C.ar    1  UNL1        0.1363
      6 O          -0.2370    1.5050    0.1075 O.3     1  UNL1       -0.4862
      7 C           0.4991    0.7975    1.1166 C.3     1  UNL1        0.1147
      8 C           1.7289    0.1490    0.5269 C.ar    1  UNL1       -0.0104
      9 C           2.6755    0.9197   -0.1635 C.ar    1  UNL1       -0.0554
     10 C           3.8145    0.3239   -0.7065 C.ar    1  UNL1       -0.0614
     11 C           4.0197   -1.0470   -0.5634 C.ar    1  UNL1       -0.0617
     12 C           3.0865   -1.8230    0.1216 C.ar    1  UNL1       -0.0614
     13 C           1.9462   -1.2289    0.6654 C.ar    1  UNL1       -0.0554
     14 C          -1.1590   -0.0996   -1.3860 C.ar    1  UNL1       -0.0187
     15 C          -2.2502   -0.8293   -1.8566 C.ar    1  UNL1       -0.0582
     16 C          -3.5039   -0.6681   -1.2664 C.ar    1  UNL1       -0.0604
     17 C          -3.6711    0.2294   -0.2081 C.ar    1  UNL1       -0.0428
     18 H           0.8198    1.5339    1.8633 H       1  UNL1        0.0748
     19 H          -0.1228    0.0665    1.6518 H       1  UNL1        0.0748
     20 H           2.5216    1.9902   -0.2858 H       1  UNL1        0.0621
     21 H           4.5404    0.9299   -1.2422 H       1  UNL1        0.0618
     22 H           4.9069   -1.5105   -0.9867 H       1  UNL1        0.0618
     23 H           3.2466   -2.8924    0.2320 H       1  UNL1        0.0618
     24 H           1.2266   -1.8503    1.1939 H       1  UNL1        0.0621
     25 H          -0.1848   -0.2138   -1.8546 H       1  UNL1        0.0654
     26 H          -2.1234   -1.5182   -2.6881 H       1  UNL1        0.0619
     27 H          -4.3549   -1.2347   -1.6367 H       1  UNL1        0.0618
     28 H          -4.6570    0.3538    0.2341 H       1  UNL1        0.0631
@<TRIPOS>BOND
     1    26    15    1
     2    15    14   ar
     3    15    16   ar
     4    25    14    1
     5    27    16    1
     6    14     5   ar
     7    16    17   ar
     8    21    10    1
     9    22    11    1
    10    10    11   ar
    11    10     9   ar
    12    11    12   ar
    13     5     6    1
    14     5     4   ar
    15    20     9    1
    16    17    28    1
    17    17     4   ar
    18     9     8   ar
    19     6     7    1
    20    12    23    1
    21    12    13   ar
    22     4     3    1
    23     8    13   ar
    24     8     7    1
    25    13    24    1
    26     7    19    1
    27     7    18    1
    28     3     2    3
    29     2     1    1
